EPH_relaxed_0001_pdb2pqr_Repair_381_r2_0001_out
     RDKit          3D

 82 86  0  0  0  0  0  0  0  0999 V2000
   -1.8520    8.8170   -1.8370 C   0  0  0  0  0  0  0  0  0  0  0  0
   -1.8520    9.0900   -0.3300 C   0  0  2  0  0  0  0  0  0  0  0  0
   -3.2780    9.2790    0.2260 C   0  0  0  0  0  0  0  0  0  0  0  0
   -4.3690    9.2300   -0.8480 C   0  0  0  0  0  0  0  0  0  0  0  0
   -5.0910    7.9160   -0.8450 C   0  0  2  0  0  0  0  0  0  0  0  0
   -5.3620    7.3790   -2.1450 O   0  0  0  0  0  0  0  0  0  0  0  0
   -6.5080    7.7400   -1.3570 C   0  0  0  0  0  0  0  0  0  0  0  0
   -7.2880    8.8920   -1.9090 C   0  0  0  0  0  0  0  0  0  0  0  0
   -7.3020    6.5660   -0.8750 C   0  0  0  0  0  0  0  0  0  0  0  0
   -1.0070   10.3200   -0.0240 C   0  0  1  0  0  0  0  0  0  0  0  0
    0.0790   10.0470    1.0510 C   0  0  0  0  0  0  0  0  0  0  0  0
    1.3140   10.9010    0.6660 C   0  0  0  0  0  0  0  0  0  0  0  0
    0.7920   11.8790   -0.4120 C   0  0  1  0  0  0  0  0  0  0  0  0
    0.0940   13.0230    0.3880 C   0  0  0  0  0  0  0  0  0  0  0  0
    1.8570   12.4400   -1.4100 C   0  0  2  0  0  0  0  0  0  0  0  0
    2.9700   13.2860   -0.7690 C   0  0  0  0  0  0  0  0  0  0  0  0
    2.6900   14.7500   -0.6840 C   0  0  0  0  0  0  0  0  0  0  0  0
    1.7220   15.4010   -1.3560 C   0  0  0  0  0  0  0  0  0  0  0  0
    0.8480   14.6700   -2.3830 C   0  0  1  0  0  0  0  0  0  0  0  0
    0.7460   15.5230   -3.6750 C   0  0  0  0  0  0  0  0  0  0  0  0
    0.2610   16.9430   -3.4020 C   0  0  0  0  0  0  0  0  0  0  0  0
    1.1880   17.6570   -2.4210 C   0  0  2  0  0  0  0  0  0  0  0  0
    2.4600   17.8510   -3.0480 O   0  0  0  0  0  0  0  0  0  0  0  0
    1.3760   16.8860   -1.0850 C   0  0  0  0  0  0  0  0  0  0  0  0
    0.0620   16.9370   -0.2650 C   0  0  0  0  0  0  0  0  0  0  0  0
    2.4410   17.6400   -0.2440 C   0  0  0  0  0  0  0  0  0  0  0  0
    1.2420   13.1590   -2.6780 C   0  0  1  0  0  0  0  0  0  0  0  0
    2.3290   13.1010   -3.7950 C   0  0  0  0  0  0  0  0  0  0  0  0
   -0.0170   12.4010   -3.2440 C   0  0  0  0  0  0  0  0  0  0  0  0
   -0.9680   11.7660   -2.2120 C   0  0  0  0  0  0  0  0  0  0  0  0
   -0.1900   10.9300   -1.1910 C   0  0  2  0  0  0  0  0  0  0  0  0
    0.5060    9.7580   -1.9640 C   0  0  0  0  0  0  0  0  0  0  0  0
   -0.8149    8.7516   -2.1978 H   0  0  0  0  0  0  0  0  0  0  0  0
   -2.3705    7.8679   -2.0377 H   0  0  0  0  0  0  0  0  0  0  0  0
   -2.3705    9.6354   -2.3579 H   0  0  0  0  0  0  0  0  0  0  0  0
   -1.4183    8.2088    0.1654 H   0  0  0  0  0  0  0  0  0  0  0  0
   -3.4743    8.4809    0.9571 H   0  0  0  0  0  0  0  0  0  0  0  0
   -3.3166   10.2811    0.6781 H   0  0  0  0  0  0  0  0  0  0  0  0
   -5.0936   10.0354   -0.6572 H   0  0  0  0  0  0  0  0  0  0  0  0
   -3.8896    9.3558   -1.8300 H   0  0  0  0  0  0  0  0  0  0  0  0
   -4.6057    7.6245    0.0981 H   0  0  0  0  0  0  0  0  0  0  0  0
   -7.6935    9.4909   -1.0802 H   0  0  0  0  0  0  0  0  0  0  0  0
   -6.6282    9.5194   -2.5262 H   0  0  0  0  0  0  0  0  0  0  0  0
   -8.1156    8.5123   -2.5262 H   0  0  0  0  0  0  0  0  0  0  0  0
   -7.3094    6.5550    0.2249 H   0  0  0  0  0  0  0  0  0  0  0  0
   -8.3340    6.6433   -1.2479 H   0  0  0  0  0  0  0  0  0  0  0  0
   -6.8460    5.6370   -1.2479 H   0  0  0  0  0  0  0  0  0  0  0  0
   -1.8007   11.0163    0.2847 H   0  0  0  0  0  0  0  0  0  0  0  0
   -0.2896   10.3406    2.0449 H   0  0  0  0  0  0  0  0  0  0  0  0
    0.3350    8.9780    1.0912 H   0  0  0  0  0  0  0  0  0  0  0  0
    1.6925   11.4521    1.5395 H   0  0  0  0  0  0  0  0  0  0  0  0
    2.1493   10.2853    0.3010 H   0  0  0  0  0  0  0  0  0  0  0  0
    0.2069   12.8380    1.4664 H   0  0  0  0  0  0  0  0  0  0  0  0
    0.5583   13.9865    0.1307 H   0  0  0  0  0  0  0  0  0  0  0  0
   -0.9751   13.0509    0.1307 H   0  0  0  0  0  0  0  0  0  0  0  0
    2.3481   11.5238   -1.7698 H   0  0  0  0  0  0  0  0  0  0  0  0
    3.1359   12.9119    0.2520 H   0  0  0  0  0  0  0  0  0  0  0  0
    3.8471   13.1817   -1.4246 H   0  0  0  0  0  0  0  0  0  0  0  0
    3.3284   15.3470   -0.0161 H   0  0  0  0  0  0  0  0  0  0  0  0
   -0.1457   14.5702   -1.9220 H   0  0  0  0  0  0  0  0  0  0  0  0
    1.7401   15.5739   -4.1432 H   0  0  0  0  0  0  0  0  0  0  0  0
    0.0110   15.0407   -4.3362 H   0  0  0  0  0  0  0  0  0  0  0  0
    0.2375   17.5036   -4.3482 H   0  0  0  0  0  0  0  0  0  0  0  0
   -0.7451   16.8916   -2.9604 H   0  0  0  0  0  0  0  0  0  0  0  0
    0.7204   18.6191   -2.1646 H   0  0  0  0  0  0  0  0  0  0  0  0
    3.1090   18.0300   -2.3460 H   0  0  0  0  0  0  0  0  0  0  0  0
    0.2995   16.9278    0.8090 H   0  0  0  0  0  0  0  0  0  0  0  0
   -0.4882   17.8572   -0.5110 H   0  0  0  0  0  0  0  0  0  0  0  0
   -0.5579   16.0622   -0.5110 H   0  0  0  0  0  0  0  0  0  0  0  0
    2.2340   17.4934    0.8264 H   0  0  0  0  0  0  0  0  0  0  0  0
    3.4408   17.2474   -0.4812 H   0  0  0  0  0  0  0  0  0  0  0  0
    2.4028   18.7134   -0.4812 H   0  0  0  0  0  0  0  0  0  0  0  0
    3.3262   13.0478   -3.3338 H   0  0  0  0  0  0  0  0  0  0  0  0
    2.1658   12.2103   -4.4195 H   0  0  0  0  0  0  0  0  0  0  0  0
    2.2616   14.0040   -4.4195 H   0  0  0  0  0  0  0  0  0  0  0  0
   -0.6010   13.1215   -3.8354 H   0  0  0  0  0  0  0  0  0  0  0  0
    0.3903   11.5557   -3.8181 H   0  0  0  0  0  0  0  0  0  0  0  0
   -1.5113   12.5639   -1.6846 H   0  0  0  0  0  0  0  0  0  0  0  0
   -1.6712   11.1068   -2.7421 H   0  0  0  0  0  0  0  0  0  0  0  0
    0.9301    9.0439   -1.2427 H   0  0  0  0  0  0  0  0  0  0  0  0
   -0.2340    9.2451   -2.5959 H   0  0  0  0  0  0  0  0  0  0  0  0
    1.3105   10.1623   -2.5959 H   0  0  0  0  0  0  0  0  0  0  0  0
  1  2  1  0
  2  3  1  0
  3  4  1  0
  4  5  1  0
  5  6  1  0
  6  7  1  0
  7  8  1  0
  7  9  1  0
  2 10  1  0
 10 11  1  0
 11 12  1  0
 12 13  1  0
 13 14  1  1
 13 15  1  0
 15 16  1  0
 16 17  1  0
 17 18  2  0
 18 19  1  0
 19 20  1  0
 20 21  1  0
 21 22  1  0
 22 23  1  0
 22 24  1  0
 24 25  1  0
 24 26  1  0
 19 27  1  0
 27 28  1  6
 27 29  1  0
 29 30  1  0
 30 31  1  0
 31 32  1  6
  7  5  1  0
 31 10  1  0
 31 13  1  0
 27 15  1  0
 24 18  1  0
  1 33  1  0
  1 34  1  0
  1 35  1  0
  2 36  1  1
  3 37  1  0
  3 38  1  0
  4 39  1  0
  4 40  1  0
  5 41  1  1
  8 42  1  0
  8 43  1  0
  8 44  1  0
  9 45  1  0
  9 46  1  0
  9 47  1  0
 10 48  1  1
 11 49  1  0
 11 50  1  0
 12 51  1  0
 12 52  1  0
 14 53  1  0
 14 54  1  0
 14 55  1  0
 15 56  1  6
 16 57  1  0
 16 58  1  0
 17 59  1  0
 19 60  1  1
 20 61  1  0
 20 62  1  0
 21 63  1  0
 21 64  1  0
 22 65  1  1
 23 66  1  0
 25 67  1  0
 25 68  1  0
 25 69  1  0
 26 70  1  0
 26 71  1  0
 26 72  1  0
 28 73  1  0
 28 74  1  0
 28 75  1  0
 29 76  1  0
 29 77  1  0
 30 78  1  0
 30 79  1  0
 32 80  1  0
 32 81  1  0
 32 82  1  0
M  END
>  <meeko>  (1) 
{"is_sidechain": [false], "intermolecular_energy": 2.731, "internal_energy": -0.839}

$$$$
EPH_relaxed_0001_pdb2pqr_Repair_381_r2_0001_out
     RDKit          3D

 82 86  0  0  0  0  0  0  0  0999 V2000
   -5.4570    6.0190   -4.2980 C   0  0  0  0  0  0  0  0  0  0  0  0
   -5.5430    7.0590   -3.1770 C   0  0  2  0  0  0  0  0  0  0  0  0
   -4.3820    6.9260   -2.1710 C   0  0  0  0  0  0  0  0  0  0  0  0
   -3.1570    7.7710   -2.5300 C   0  0  0  0  0  0  0  0  0  0  0  0
   -2.4480    8.2670   -1.3060 C   0  0  2  0  0  0  0  0  0  0  0  0
   -2.4700    9.6900   -1.1360 O   0  0  0  0  0  0  0  0  0  0  0  0
   -1.1790    9.0970   -1.3530 C   0  0  0  0  0  0  0  0  0  0  0  0
   -0.5440    9.4790   -2.6540 C   0  0  0  0  0  0  0  0  0  0  0  0
   -0.2940    9.1210   -0.1460 C   0  0  0  0  0  0  0  0  0  0  0  0
   -6.8780    6.9310   -2.4520 C   0  0  1  0  0  0  0  0  0  0  0  0
   -6.7820    6.0570   -1.1730 C   0  0  0  0  0  0  0  0  0  0  0  0
   -7.7600    6.6690   -0.1380 C   0  0  0  0  0  0  0  0  0  0  0  0
   -8.6220    7.6600   -0.9540 C   0  0  1  0  0  0  0  0  0  0  0  0
   -9.7070    6.7750   -1.6430 C   0  0  0  0  0  0  0  0  0  0  0  0
   -9.2630    8.8410   -0.1540 C   0  0  2  0  0  0  0  0  0  0  0  0
  -10.2620    8.4220    0.9380 C   0  0  0  0  0  0  0  0  0  0  0  0
  -11.6850    8.3200    0.4960 C   0  0  0  0  0  0  0  0  0  0  0  0
  -12.1870    8.8260   -0.6460 C   0  0  0  0  0  0  0  0  0  0  0  0
  -11.3140    9.6690   -1.5850 C   0  0  1  0  0  0  0  0  0  0  0  0
  -12.0920   10.9410   -2.0120 C   0  0  0  0  0  0  0  0  0  0  0  0
  -13.4550   10.6170   -2.6160 C   0  0  0  0  0  0  0  0  0  0  0  0
  -14.3150    9.8290   -1.6320 C   0  0  2  0  0  0  0  0  0  0  0  0
  -14.6330   10.6720   -0.5200 O   0  0  0  0  0  0  0  0  0  0  0  0
  -13.6300    8.5300   -1.1240 C   0  0  0  0  0  0  0  0  0  0  0  0
  -13.5590    7.4950   -2.2740 C   0  0  0  0  0  0  0  0  0  0  0  0
  -14.5410    7.9040   -0.0330 C   0  0  0  0  0  0  0  0  0  0  0  0
   -9.8490    9.9960   -1.0620 C   0  0  1  0  0  0  0  0  0  0  0  0
   -9.8740   11.2840   -0.1830 C   0  0  0  0  0  0  0  0  0  0  0  0
   -8.9230   10.3180   -2.2940 C   0  0  0  0  0  0  0  0  0  0  0  0
   -8.2240    9.1220   -2.9680 C   0  0  0  0  0  0  0  0  0  0  0  0
   -7.5300    8.2360   -1.9290 C   0  0  2  0  0  0  0  0  0  0  0  0
   -6.4180    9.0930   -1.2350 C   0  0  0  0  0  0  0  0  0  0  0  0
   -5.3739    5.0135   -3.8597 H   0  0  0  0  0  0  0  0  0  0  0  0
   -6.3628    6.0742   -4.9197 H   0  0  0  0  0  0  0  0  0  0  0  0
   -4.5726    6.2223   -4.9197 H   0  0  0  0  0  0  0  0  0  0  0  0
   -5.4650    8.0534   -3.6407 H   0  0  0  0  0  0  0  0  0  0  0  0
   -4.7428    7.2407   -1.1806 H   0  0  0  0  0  0  0  0  0  0  0  0
   -4.0623    5.8736   -2.1863 H   0  0  0  0  0  0  0  0  0  0  0  0
   -2.4612    7.1572   -3.1209 H   0  0  0  0  0  0  0  0  0  0  0  0
   -3.4990    8.6437   -3.1057 H   0  0  0  0  0  0  0  0  0  0  0  0
   -2.7114    7.3524   -0.7546 H   0  0  0  0  0  0  0  0  0  0  0  0
    0.3837   10.0371   -2.4593 H   0  0  0  0  0  0  0  0  0  0  0  0
   -0.3116    8.5707   -3.2293 H   0  0  0  0  0  0  0  0  0  0  0  0
   -1.2376   10.1099   -3.2293 H   0  0  0  0  0  0  0  0  0  0  0  0
   -0.9132    9.1042    0.7630 H   0  0  0  0  0  0  0  0  0  0  0  0
    0.3651    8.2404   -0.1570 H   0  0  0  0  0  0  0  0  0  0  0  0
    0.3164   10.0360   -0.1570 H   0  0  0  0  0  0  0  0  0  0  0  0
   -7.4877    6.5028   -3.2613 H   0  0  0  0  0  0  0  0  0  0  0  0
   -7.0711    5.0203   -1.4002 H   0  0  0  0  0  0  0  0  0  0  0  0
   -5.7537    6.0403   -0.7826 H   0  0  0  0  0  0  0  0  0  0  0  0
   -8.3889    5.8866    0.3119 H   0  0  0  0  0  0  0  0  0  0  0  0
   -7.2335    7.1607    0.6933 H   0  0  0  0  0  0  0  0  0  0  0  0
  -10.3168    6.2776   -0.8744 H   0  0  0  0  0  0  0  0  0  0  0  0
  -10.3522    7.4077   -2.2702 H   0  0  0  0  0  0  0  0  0  0  0  0
   -9.2168    6.0158   -2.2702 H   0  0  0  0  0  0  0  0  0  0  0  0
   -8.3979    9.2627    0.3787 H   0  0  0  0  0  0  0  0  0  0  0  0
   -9.9538    7.4380    1.3211 H   0  0  0  0  0  0  0  0  0  0  0  0
  -10.2354    9.2183    1.6964 H   0  0  0  0  0  0  0  0  0  0  0  0
  -12.3815    7.7865    1.1595 H   0  0  0  0  0  0  0  0  0  0  0  0
  -11.1171    9.0391   -2.4650 H   0  0  0  0  0  0  0  0  0  0  0  0
  -12.2405   11.5773   -1.1271 H   0  0  0  0  0  0  0  0  0  0  0  0
  -11.4978   11.4530   -2.7832 H   0  0  0  0  0  0  0  0  0  0  0  0
  -13.9682   11.5560   -2.8706 H   0  0  0  0  0  0  0  0  0  0  0  0
  -13.3028   10.0049   -3.5172 H   0  0  0  0  0  0  0  0  0  0  0  0
  -15.2244    9.5157   -2.1657 H   0  0  0  0  0  0  0  0  0  0  0  0
  -15.1420   10.1410    0.1150 H   0  0  0  0  0  0  0  0  0  0  0  0
  -13.4895    6.4817   -1.8516 H   0  0  0  0  0  0  0  0  0  0  0  0
  -14.4646    7.5726   -2.8936 H   0  0  0  0  0  0  0  0  0  0  0  0
  -12.6725    7.6956   -2.8936 H   0  0  0  0  0  0  0  0  0  0  0  0
  -14.1556    8.1688    0.9627 H   0  0  0  0  0  0  0  0  0  0  0  0
  -15.5649    8.2901   -0.1445 H   0  0  0  0  0  0  0  0  0  0  0  0
  -14.5476    6.8097   -0.1445 H   0  0  0  0  0  0  0  0  0  0  0  0
   -9.8685   11.0024    0.8803 H   0  0  0  0  0  0  0  0  0  0  0  0
   -8.9876   11.8965   -0.4047 H   0  0  0  0  0  0  0  0  0  0  0  0
  -10.7835   11.8616   -0.4047 H   0  0  0  0  0  0  0  0  0  0  0  0
   -9.5427   10.8139   -3.0556 H   0  0  0  0  0  0  0  0  0  0  0  0
   -8.1088   10.9366   -1.8886 H   0  0  0  0  0  0  0  0  0  0  0  0
   -8.9736    8.5244   -3.5074 H   0  0  0  0  0  0  0  0  0  0  0  0
   -7.4644    9.5066   -3.6645 H   0  0  0  0  0  0  0  0  0  0  0  0
   -6.5217    9.0131   -0.1428 H   0  0  0  0  0  0  0  0  0  0  0  0
   -5.4274    8.7225   -1.5374 H   0  0  0  0  0  0  0  0  0  0  0  0
   -6.5239   10.1453   -1.5374 H   0  0  0  0  0  0  0  0  0  0  0  0
  1  2  1  0
  2  3  1  0
  3  4  1  0
  4  5  1  0
  5  6  1  0
  6  7  1  0
  7  8  1  0
  7  9  1  0
  2 10  1  0
 10 11  1  0
 11 12  1  0
 12 13  1  0
 13 14  1  6
 13 15  1  0
 15 16  1  0
 16 17  1  0
 17 18  2  0
 18 19  1  0
 19 20  1  0
 20 21  1  0
 21 22  1  0
 22 23  1  0
 22 24  1  0
 24 25  1  0
 24 26  1  0
 19 27  1  0
 27 28  1  1
 27 29  1  0
 29 30  1  0
 30 31  1  0
 31 32  1  1
  7  5  1  0
 31 10  1  0
 31 13  1  0
 27 15  1  0
 24 18  1  0
  1 33  1  0
  1 34  1  0
  1 35  1  0
  2 36  1  6
  3 37  1  0
  3 38  1  0
  4 39  1  0
  4 40  1  0
  5 41  1  1
  8 42  1  0
  8 43  1  0
  8 44  1  0
  9 45  1  0
  9 46  1  0
  9 47  1  0
 10 48  1  6
 11 49  1  0
 11 50  1  0
 12 51  1  0
 12 52  1  0
 14 53  1  0
 14 54  1  0
 14 55  1  0
 15 56  1  1
 16 57  1  0
 16 58  1  0
 17 59  1  0
 19 60  1  6
 20 61  1  0
 20 62  1  0
 21 63  1  0
 21 64  1  0
 22 65  1  6
 23 66  1  0
 25 67  1  0
 25 68  1  0
 25 69  1  0
 26 70  1  0
 26 71  1  0
 26 72  1  0
 28 73  1  0
 28 74  1  0
 28 75  1  0
 29 76  1  0
 29 77  1  0
 30 78  1  0
 30 79  1  0
 32 80  1  0
 32 81  1  0
 32 82  1  0
M  END
>  <meeko>  (2) 
{"is_sidechain": [false], "intermolecular_energy": 2.731, "internal_energy": -0.839}

$$$$
EPH_relaxed_0001_pdb2pqr_Repair_381_r2_0001_out
     RDKit          3D

 82 86  0  0  0  0  0  0  0  0999 V2000
    1.9670   19.6880   -0.6120 C   0  0  0  0  0  0  0  0  0  0  0  0
    2.3490   18.4730    0.2380 C   0  0  2  0  0  0  0  0  0  0  0  0
    3.8040   18.0270   -0.0060 C   0  0  0  0  0  0  0  0  0  0  0  0
    4.7060   18.1660    1.2230 C   0  0  0  0  0  0  0  0  0  0  0  0
    4.0730   19.0200    2.2800 C   0  0  2  0  0  0  0  0  0  0  0  0
    4.8280   20.1840    2.6410 O   0  0  0  0  0  0  0  0  0  0  0  0
    4.6540   19.1980    3.6710 C   0  0  0  0  0  0  0  0  0  0  0  0
    5.9210   18.5150    4.0800 C   0  0  0  0  0  0  0  0  0  0  0  0
    3.7430   19.6340    4.7760 C   0  0  0  0  0  0  0  0  0  0  0  0
    1.3950   17.3180   -0.0470 C   0  0  1  0  0  0  0  0  0  0  0  0
    0.1240   17.7690   -0.8160 C   0  0  0  0  0  0  0  0  0  0  0  0
   -0.2580   16.6070   -1.7680 C   0  0  0  0  0  0  0  0  0  0  0  0
    0.5940   15.4100   -1.2850 C   0  0  1  0  0  0  0  0  0  0  0  0
   -0.1850   14.8310   -0.0620 C   0  0  0  0  0  0  0  0  0  0  0  0
    0.9010   14.3060   -2.3490 C   0  0  2  0  0  0  0  0  0  0  0  0
   -0.3340   13.5750   -2.9050 C   0  0  0  0  0  0  0  0  0  0  0  0
   -0.7380   12.3470   -2.1590 C   0  0  0  0  0  0  0  0  0  0  0  0
    0.0220   11.6910   -1.2630 C   0  0  0  0  0  0  0  0  0  0  0  0
    1.4700   12.1200   -0.9940 C   0  0  1  0  0  0  0  0  0  0  0  0
    2.3880   10.8700   -0.9910 C   0  0  0  0  0  0  0  0  0  0  0  0
    1.9090    9.7940   -0.0210 C   0  0  0  0  0  0  0  0  0  0  0  0
    0.4870    9.3520   -0.3560 C   0  0  2  0  0  0  0  0  0  0  0  0
    0.4980    8.6820   -1.6200 O   0  0  0  0  0  0  0  0  0  0  0  0
   -0.5270   10.5300   -0.3980 C   0  0  0  0  0  0  0  0  0  0  0  0
   -0.7660   11.0620    1.0360 C   0  0  0  0  0  0  0  0  0  0  0  0
   -1.8900    9.9690   -0.8850 C   0  0  0  0  0  0  0  0  0  0  0  0
    2.0310   13.2860   -1.9170 C   0  0  1  0  0  0  0  0  0  0  0  0
    2.6170   12.6880   -3.2320 C   0  0  0  0  0  0  0  0  0  0  0  0
    3.2270   13.9960   -1.1790 C   0  0  0  0  0  0  0  0  0  0  0  0
    2.8690   15.1570   -0.2320 C   0  0  0  0  0  0  0  0  0  0  0  0
    1.9300   16.1540   -0.9180 C   0  0  2  0  0  0  0  0  0  0  0  0
    2.6940   16.7690   -2.1400 C   0  0  0  0  0  0  0  0  0  0  0  0
    1.7029   20.5281    0.0471 H   0  0  0  0  0  0  0  0  0  0  0  0
    2.8187   19.9737   -1.2469 H   0  0  0  0  0  0  0  0  0  0  0  0
    1.1051   19.4350   -1.2469 H   0  0  0  0  0  0  0  0  0  0  0  0
    2.2681   18.7701    1.2940 H   0  0  0  0  0  0  0  0  0  0  0  0
    3.7963   16.9708   -0.3131 H   0  0  0  0  0  0  0  0  0  0  0  0
    4.2161   18.6878   -0.7829 H   0  0  0  0  0  0  0  0  0  0  0  0
    4.8977   17.1662    1.6397 H   0  0  0  0  0  0  0  0  0  0  0  0
    5.6436   18.6476    0.9082 H   0  0  0  0  0  0  0  0  0  0  0  0
    3.0662   18.7482    1.9299 H   0  0  0  0  0  0  0  0  0  0  0  0
    5.9819   18.4821    5.1778 H   0  0  0  0  0  0  0  0  0  0  0  0
    5.9300   17.4898    3.6814 H   0  0  0  0  0  0  0  0  0  0  0  0
    6.7824   19.0710    3.6814 H   0  0  0  0  0  0  0  0  0  0  0  0
    4.2104   19.4103    5.7463 H   0  0  0  0  0  0  0  0  0  0  0  0
    3.5623   20.7162    4.6968 H   0  0  0  0  0  0  0  0  0  0  0  0
    2.7869   19.0959    4.6968 H   0  0  0  0  0  0  0  0  0  0  0  0
    1.2153   16.9681    0.9803 H   0  0  0  0  0  0  0  0  0  0  0  0
   -0.6962   17.9655   -0.1099 H   0  0  0  0  0  0  0  0  0  0  0  0
    0.3106   18.6957   -1.3786 H   0  0  0  0  0  0  0  0  0  0  0  0
   -1.3308   16.3770   -1.6889 H   0  0  0  0  0  0  0  0  0  0  0  0
   -0.0700   16.8537   -2.8234 H   0  0  0  0  0  0  0  0  0  0  0  0
    0.2840   15.1796    0.8699 H   0  0  0  0  0  0  0  0  0  0  0  0
   -1.2297   15.1736   -0.0971 H   0  0  0  0  0  0  0  0  0  0  0  0
   -0.1582   13.7319   -0.0971 H   0  0  0  0  0  0  0  0  0  0  0  0
    1.3043   14.8919   -3.1881 H   0  0  0  0  0  0  0  0  0  0  0  0
   -1.1807   14.2770   -2.8879 H   0  0  0  0  0  0  0  0  0  0  0  0
   -0.0595   13.2401   -3.9162 H   0  0  0  0  0  0  0  0  0  0  0  0
   -1.7419   11.9441   -2.3585 H   0  0  0  0  0  0  0  0  0  0  0  0
    1.4688   12.5853    0.0027 H   0  0  0  0  0  0  0  0  0  0  0  0
    2.4092   10.4457   -2.0057 H   0  0  0  0  0  0  0  0  0  0  0  0
    3.3883   11.1914   -0.6653 H   0  0  0  0  0  0  0  0  0  0  0  0
    2.5808    8.9255   -0.0863 H   0  0  0  0  0  0  0  0  0  0  0  0
    1.9167   10.2103    0.9971 H   0  0  0  0  0  0  0  0  0  0  0  0
    0.1531    8.6790    0.4475 H   0  0  0  0  0  0  0  0  0  0  0  0
    1.3680    8.8360   -2.0270 H   0  0  0  0  0  0  0  0  0  0  0  0
   -0.4289   10.3117    1.7664 H   0  0  0  0  0  0  0  0  0  0  0  0
   -0.2002   11.9942    1.1803 H   0  0  0  0  0  0  0  0  0  0  0  0
   -1.8387   11.2581    1.1803 H   0  0  0  0  0  0  0  0  0  0  0  0
   -2.5128    9.7127   -0.0153 H   0  0  0  0  0  0  0  0  0  0  0  0
   -2.4034   10.7290   -1.4924 H   0  0  0  0  0  0  0  0  0  0  0  0
   -1.7197    9.0679   -1.4924 H   0  0  0  0  0  0  0  0  0  0  0  0
    3.3671   11.9225   -2.9843 H   0  0  0  0  0  0  0  0  0  0  0  0
    1.8072   12.2311   -3.8198 H   0  0  0  0  0  0  0  0  0  0  0  0
    3.0902   13.4884   -3.8198 H   0  0  0  0  0  0  0  0  0  0  0  0
    3.7519   13.2327   -0.5858 H   0  0  0  0  0  0  0  0  0  0  0  0
    3.8280   14.4526   -1.9791 H   0  0  0  0  0  0  0  0  0  0  0  0
    2.3728   14.7520    0.6623 H   0  0  0  0  0  0  0  0  0  0  0  0
    3.7951   15.6814    0.0459 H   0  0  0  0  0  0  0  0  0  0  0  0
    3.5028   17.4201   -1.7768 H   0  0  0  0  0  0  0  0  0  0  0  0
    3.1209   15.9597   -2.7505 H   0  0  0  0  0  0  0  0  0  0  0  0
    1.9946   17.3590   -2.7505 H   0  0  0  0  0  0  0  0  0  0  0  0
  1  2  1  0
  2  3  1  0
  3  4  1  0
  4  5  1  0
  5  6  1  0
  6  7  1  0
  7  8  1  0
  7  9  1  0
  2 10  1  0
 10 11  1  0
 11 12  1  0
 12 13  1  0
 13 14  1  1
 13 15  1  0
 15 16  1  0
 16 17  1  0
 17 18  2  0
 18 19  1  0
 19 20  1  0
 20 21  1  0
 21 22  1  0
 22 23  1  0
 22 24  1  0
 24 25  1  0
 24 26  1  0
 19 27  1  0
 27 28  1  6
 27 29  1  0
 29 30  1  0
 30 31  1  0
 31 32  1  6
  7  5  1  0
 31 10  1  0
 31 13  1  0
 27 15  1  0
 24 18  1  0
  1 33  1  0
  1 34  1  0
  1 35  1  0
  2 36  1  1
  3 37  1  0
  3 38  1  0
  4 39  1  0
  4 40  1  0
  5 41  1  1
  8 42  1  0
  8 43  1  0
  8 44  1  0
  9 45  1  0
  9 46  1  0
  9 47  1  0
 10 48  1  1
 11 49  1  0
 11 50  1  0
 12 51  1  0
 12 52  1  0
 14 53  1  0
 14 54  1  0
 14 55  1  0
 15 56  1  6
 16 57  1  0
 16 58  1  0
 17 59  1  0
 19 60  1  1
 20 61  1  0
 20 62  1  0
 21 63  1  0
 21 64  1  0
 22 65  1  1
 23 66  1  0
 25 67  1  0
 25 68  1  0
 25 69  1  0
 26 70  1  0
 26 71  1  0
 26 72  1  0
 28 73  1  0
 28 74  1  0
 28 75  1  0
 29 76  1  0
 29 77  1  0
 30 78  1  0
 30 79  1  0
 32 80  1  0
 32 81  1  0
 32 82  1  0
M  END
>  <meeko>  (3) 
{"is_sidechain": [false], "intermolecular_energy": 2.731, "internal_energy": -0.839}

$$$$
EPH_relaxed_0001_pdb2pqr_Repair_381_r2_0001_out
     RDKit          3D

 82 86  0  0  0  0  0  0  0  0999 V2000
    2.3190   17.9730   -2.6740 C   0  0  0  0  0  0  0  0  0  0  0  0
    1.0230   17.5880   -1.9540 C   0  0  2  0  0  0  0  0  0  0  0  0
    1.1730   17.6400   -0.4200 C   0  0  0  0  0  0  0  0  0  0  0  0
    0.8730   19.0160    0.1810 C   0  0  0  0  0  0  0  0  0  0  0  0
   -0.5710   19.1520    0.5600 C   0  0  2  0  0  0  0  0  0  0  0  0
   -1.4520   18.2320   -0.0980 O   0  0  0  0  0  0  0  0  0  0  0  0
   -1.6470   19.6230   -0.4010 C   0  0  0  0  0  0  0  0  0  0  0  0
   -1.3240   19.9890   -1.8160 C   0  0  0  0  0  0  0  0  0  0  0  0
   -2.9110   20.1920    0.1640 C   0  0  0  0  0  0  0  0  0  0  0  0
    0.5830   16.1940   -2.3870 C   0  0  1  0  0  0  0  0  0  0  0  0
    0.6720   15.9900   -3.9230 C   0  0  0  0  0  0  0  0  0  0  0  0
    1.0820   14.5130   -4.1550 C   0  0  0  0  0  0  0  0  0  0  0  0
    0.8920   13.8350   -2.7780 C   0  0  1  0  0  0  0  0  0  0  0  0
   -0.6360   13.5280   -2.6880 C   0  0  0  0  0  0  0  0  0  0  0  0
    1.7540   12.5570   -2.5120 C   0  0  2  0  0  0  0  0  0  0  0  0
    1.4750   11.3750   -3.4560 C   0  0  0  0  0  0  0  0  0  0  0  0
    0.4250   10.4210   -2.9910 C   0  0  0  0  0  0  0  0  0  0  0  0
   -0.0650   10.3470   -1.7390 C   0  0  0  0  0  0  0  0  0  0  0  0
    0.5120   11.2160   -0.6150 C   0  0  1  0  0  0  0  0  0  0  0  0
    0.7530   10.3420    0.6440 C   0  0  0  0  0  0  0  0  0  0  0  0
   -0.4970    9.5820    1.0770 C   0  0  0  0  0  0  0  0  0  0  0  0
   -1.0070    8.6850   -0.0480 C   0  0  2  0  0  0  0  0  0  0  0  0
   -0.0490    7.6480   -0.2810 O   0  0  0  0  0  0  0  0  0  0  0  0
   -1.2760    9.4550   -1.3720 C   0  0  0  0  0  0  0  0  0  0  0  0
   -2.5170   10.3660   -1.2010 C   0  0  0  0  0  0  0  0  0  0  0  0
   -1.6490    8.4140   -2.4620 C   0  0  0  0  0  0  0  0  0  0  0  0
    1.7790   12.0950   -0.9990 C   0  0  1  0  0  0  0  0  0  0  0  0
    3.0830   11.2610   -0.8090 C   0  0  0  0  0  0  0  0  0  0  0  0
    1.8820   13.3110   -0.0040 C   0  0  0  0  0  0  0  0  0  0  0  0
    1.1040   14.5860   -0.3820 C   0  0  0  0  0  0  0  0  0  0  0  0
    1.3850   14.9900   -1.8320 C   0  0  2  0  0  0  0  0  0  0  0  0
    2.9110   15.3260   -1.9480 C   0  0  0  0  0  0  0  0  0  0  0  0
    3.0965   18.2040   -1.9310 H   0  0  0  0  0  0  0  0  0  0  0  0
    2.6513   17.1348   -3.3040 H   0  0  0  0  0  0  0  0  0  0  0  0
    2.1398   18.8567   -3.3040 H   0  0  0  0  0  0  0  0  0  0  0  0
    0.2564   18.3248   -2.2357 H   0  0  0  0  0  0  0  0  0  0  0  0
    0.4795   16.9093    0.0218 H   0  0  0  0  0  0  0  0  0  0  0  0
    2.2245   17.4116   -0.1917 H   0  0  0  0  0  0  0  0  0  0  0  0
    1.4921   19.1554    1.0795 H   0  0  0  0  0  0  0  0  0  0  0  0
    1.1020   19.7791   -0.5775 H   0  0  0  0  0  0  0  0  0  0  0  0
   -0.2986   19.4711    1.5769 H   0  0  0  0  0  0  0  0  0  0  0  0
   -0.5962   20.8137   -1.8244 H   0  0  0  0  0  0  0  0  0  0  0  0
   -0.8958   19.1168   -2.3317 H   0  0  0  0  0  0  0  0  0  0  0  0
   -2.2426   20.3054   -2.3317 H   0  0  0  0  0  0  0  0  0  0  0  0
   -2.8637   20.1707    1.2628 H   0  0  0  0  0  0  0  0  0  0  0  0
   -3.0304   21.2307   -0.1778 H   0  0  0  0  0  0  0  0  0  0  0  0
   -3.7678   19.5927   -0.1778 H   0  0  0  0  0  0  0  0  0  0  0  0
   -0.4375   16.1871   -1.9764 H   0  0  0  0  0  0  0  0  0  0  0  0
   -0.3043   16.1898   -4.3889 H   0  0  0  0  0  0  0  0  0  0  0  0
    1.4039   16.6781   -4.3711 H   0  0  0  0  0  0  0  0  0  0  0  0
    0.4350   14.0445   -4.9112 H   0  0  0  0  0  0  0  0  0  0  0  0
    2.1128   14.4196   -4.5275 H   0  0  0  0  0  0  0  0  0  0  0  0
   -0.9363   13.4677   -1.6315 H   0  0  0  0  0  0  0  0  0  0  0  0
   -1.2011   14.3306   -3.1845 H   0  0  0  0  0  0  0  0  0  0  0  0
   -0.8473   12.5695   -3.1845 H   0  0  0  0  0  0  0  0  0  0  0  0
    2.7695   12.9020   -2.7565 H   0  0  0  0  0  0  0  0  0  0  0  0
    1.1574   11.7831   -4.4268 H   0  0  0  0  0  0  0  0  0  0  0  0
    2.4101   10.7978   -3.5051 H   0  0  0  0  0  0  0  0  0  0  0  0
    0.0173    9.7195   -3.7337 H   0  0  0  0  0  0  0  0  0  0  0  0
   -0.2503   11.9791   -0.3992 H   0  0  0  0  0  0  0  0  0  0  0  0
    1.5482    9.6152    0.4217 H   0  0  0  0  0  0  0  0  0  0  0  0
    1.0370   11.0139    1.4673 H   0  0  0  0  0  0  0  0  0  0  0  0
   -0.2554    8.9603    1.9517 H   0  0  0  0  0  0  0  0  0  0  0  0
   -1.2817   10.3108    1.3281 H   0  0  0  0  0  0  0  0  0  0  0  0
   -1.9728    8.2687    0.2744 H   0  0  0  0  0  0  0  0  0  0  0  0
    0.3960    7.4640    0.5640 H   0  0  0  0  0  0  0  0  0  0  0  0
   -2.7185   10.5139   -0.1298 H   0  0  0  0  0  0  0  0  0  0  0  0
   -2.3254   11.3395   -1.6759 H   0  0  0  0  0  0  0  0  0  0  0  0
   -3.3884    9.8915   -1.6759 H   0  0  0  0  0  0  0  0  0  0  0  0
   -1.9827    7.4828   -1.9808 H   0  0  0  0  0  0  0  0  0  0  0  0
   -2.4598    8.8138   -3.0887 H   0  0  0  0  0  0  0  0  0  0  0  0
   -0.7688    8.2079   -3.0887 H   0  0  0  0  0  0  0  0  0  0  0  0
    3.2831   11.1330    0.2650 H   0  0  0  0  0  0  0  0  0  0  0  0
    2.9589   10.2742   -1.2790 H   0  0  0  0  0  0  0  0  0  0  0  0
    3.9267   11.7875   -1.2790 H   0  0  0  0  0  0  0  0  0  0  0  0
    1.5108   12.9725    0.9746 H   0  0  0  0  0  0  0  0  0  0  0  0
    2.9417   13.6056   -0.0185 H   0  0  0  0  0  0  0  0  0  0  0  0
    0.0266   14.3987   -0.2630 H   0  0  0  0  0  0  0  0  0  0  0  0
    1.4280   15.4034    0.2789 H   0  0  0  0  0  0  0  0  0  0  0  0
    3.3431   15.4211   -0.9409 H   0  0  0  0  0  0  0  0  0  0  0  0
    3.4237   14.5192   -2.4923 H   0  0  0  0  0  0  0  0  0  0  0  0
    3.0375   16.2735   -2.4923 H   0  0  0  0  0  0  0  0  0  0  0  0
  1  2  1  0
  2  3  1  0
  3  4  1  0
  4  5  1  0
  5  6  1  0
  6  7  1  0
  7  8  1  0
  7  9  1  0
  2 10  1  0
 10 11  1  0
 11 12  1  0
 12 13  1  0
 13 14  1  1
 13 15  1  0
 15 16  1  0
 16 17  1  0
 17 18  2  0
 18 19  1  0
 19 20  1  0
 20 21  1  0
 21 22  1  0
 22 23  1  0
 22 24  1  0
 24 25  1  0
 24 26  1  0
 19 27  1  0
 27 28  1  6
 27 29  1  0
 29 30  1  0
 30 31  1  0
 31 32  1  1
  7  5  1  0
 31 10  1  0
 31 13  1  0
 27 15  1  0
 24 18  1  0
  1 33  1  0
  1 34  1  0
  1 35  1  0
  2 36  1  6
  3 37  1  0
  3 38  1  0
  4 39  1  0
  4 40  1  0
  5 41  1  1
  8 42  1  0
  8 43  1  0
  8 44  1  0
  9 45  1  0
  9 46  1  0
  9 47  1  0
 10 48  1  1
 11 49  1  0
 11 50  1  0
 12 51  1  0
 12 52  1  0
 14 53  1  0
 14 54  1  0
 14 55  1  0
 15 56  1  6
 16 57  1  0
 16 58  1  0
 17 59  1  0
 19 60  1  1
 20 61  1  0
 20 62  1  0
 21 63  1  0
 21 64  1  0
 22 65  1  1
 23 66  1  0
 25 67  1  0
 25 68  1  0
 25 69  1  0
 26 70  1  0
 26 71  1  0
 26 72  1  0
 28 73  1  0
 28 74  1  0
 28 75  1  0
 29 76  1  0
 29 77  1  0
 30 78  1  0
 30 79  1  0
 32 80  1  0
 32 81  1  0
 32 82  1  0
M  END
>  <meeko>  (4) 
{"is_sidechain": [false], "intermolecular_energy": 2.731, "internal_energy": -0.839}

$$$$
EPH_relaxed_0001_pdb2pqr_Repair_381_r2_0001_out
     RDKit          3D

 82 86  0  0  0  0  0  0  0  0999 V2000
    2.2410   17.9620   -2.5310 C   0  0  0  0  0  0  0  0  0  0  0  0
    0.7200   17.8260   -2.6380 C   0  0  2  0  0  0  0  0  0  0  0  0
    0.0030   18.3100   -1.3610 C   0  0  0  0  0  0  0  0  0  0  0  0
    0.7210   17.9190   -0.0660 C   0  0  0  0  0  0  0  0  0  0  0  0
    1.2920   19.1140    0.6340 C   0  0  2  0  0  0  0  0  0  0  0  0
    2.2090   19.8870   -0.1520 O   0  0  0  0  0  0  0  0  0  0  0  0
    2.7570   19.2420    1.0100 C   0  0  0  0  0  0  0  0  0  0  0  0
    3.7400   18.1580    0.6980 C   0  0  0  0  0  0  0  0  0  0  0  0
    3.1340   20.1920    2.1040 C   0  0  0  0  0  0  0  0  0  0  0  0
    0.3460   16.3770   -2.9270 C   0  0  1  0  0  0  0  0  0  0  0  0
    0.4240   16.0310   -4.4380 C   0  0  0  0  0  0  0  0  0  0  0  0
    0.9070   14.5600   -4.5350 C   0  0  0  0  0  0  0  0  0  0  0  0
    0.7720   14.0100   -3.0960 C   0  0  1  0  0  0  0  0  0  0  0  0
   -0.7370   13.6370   -2.9490 C   0  0  0  0  0  0  0  0  0  0  0  0
    1.7020   12.8090   -2.7260 C   0  0  2  0  0  0  0  0  0  0  0  0
    1.4720   11.5280   -3.5470 C   0  0  0  0  0  0  0  0  0  0  0  0
    0.4790   10.5720   -2.9730 C   0  0  0  0  0  0  0  0  0  0  0  0
    0.0100   10.5940   -1.7110 C   0  0  0  0  0  0  0  0  0  0  0  0
    0.5570   11.5960   -0.6860 C   0  0  1  0  0  0  0  0  0  0  0  0
    0.8600   10.8610    0.6460 C   0  0  0  0  0  0  0  0  0  0  0  0
   -0.3440   10.0850    1.1720 C   0  0  0  0  0  0  0  0  0  0  0  0
   -0.8220    9.0590    0.1480 C   0  0  2  0  0  0  0  0  0  0  0  0
    0.1860    8.0530   -0.0020 O   0  0  0  0  0  0  0  0  0  0  0  0
   -1.1480    9.6820   -1.2380 C   0  0  0  0  0  0  0  0  0  0  0  0
   -2.4320   10.5430   -1.1320 C   0  0  0  0  0  0  0  0  0  0  0  0
   -1.4810    8.5240   -2.2160 C   0  0  0  0  0  0  0  0  0  0  0  0
    1.7710   12.4970   -1.1760 C   0  0  1  0  0  0  0  0  0  0  0  0
    3.1190   11.7510   -0.9320 C   0  0  0  0  0  0  0  0  0  0  0  0
    1.8250   13.8060   -0.3040 C   0  0  0  0  0  0  0  0  0  0  0  0
    0.9770   14.9980   -0.7880 C   0  0  0  0  0  0  0  0  0  0  0  0
    1.2170   15.2740   -2.2750 C   0  0  2  0  0  0  0  0  0  0  0  0
    2.7220   15.6730   -2.4500 C   0  0  0  0  0  0  0  0  0  0  0  0
    2.5331   17.9881   -1.4708 H   0  0  0  0  0  0  0  0  0  0  0  0
    2.7214   17.1032   -3.0226 H   0  0  0  0  0  0  0  0  0  0  0  0
    2.5614   18.8924   -3.0226 H   0  0  0  0  0  0  0  0  0  0  0  0
    0.3882   18.4679   -3.4674 H   0  0  0  0  0  0  0  0  0  0  0  0
   -0.0716   19.4068   -1.3992 H   0  0  0  0  0  0  0  0  0  0  0  0
   -0.9830   17.8226   -1.3416 H   0  0  0  0  0  0  0  0  0  0  0  0
    0.0031   17.4230    0.6037 H   0  0  0  0  0  0  0  0  0  0  0  0
    1.5505   17.2444   -0.3243 H   0  0  0  0  0  0  0  0  0  0  0  0
    0.3670   19.2458    1.2144 H   0  0  0  0  0  0  0  0  0  0  0  0
    4.1262   17.7322    1.6358 H   0  0  0  0  0  0  0  0  0  0  0  0
    3.2429   17.3691    0.1144 H   0  0  0  0  0  0  0  0  0  0  0  0
    4.5736   18.5758    0.1144 H   0  0  0  0  0  0  0  0  0  0  0  0
    2.9468   19.7203    3.0799 H   0  0  0  0  0  0  0  0  0  0  0  0
    4.2009   20.4456    2.0179 H   0  0  0  0  0  0  0  0  0  0  0  0
    2.5313   21.1081    2.0179 H   0  0  0  0  0  0  0  0  0  0  0  0
   -0.6668   16.3583   -2.4983 H   0  0  0  0  0  0  0  0  0  0  0  0
   -0.5677   16.1357   -4.9024 H   0  0  0  0  0  0  0  0  0  0  0  0
    1.1127   16.7087   -4.9637 H   0  0  0  0  0  0  0  0  0  0  0  0
    0.2744   13.9885   -5.2302 H   0  0  0  0  0  0  0  0  0  0  0  0
    1.9358   14.4828   -4.9165 H   0  0  0  0  0  0  0  0  0  0  0  0
   -0.9966   13.5728   -1.8820 H   0  0  0  0  0  0  0  0  0  0  0  0
   -1.3543   14.4096   -3.4307 H   0  0  0  0  0  0  0  0  0  0  0  0
   -0.9232   12.6658   -3.4307 H   0  0  0  0  0  0  0  0  0  0  0  0
    2.6945   13.1793   -3.0223 H   0  0  0  0  0  0  0  0  0  0  0  0
    1.1207   11.8235   -4.5466 H   0  0  0  0  0  0  0  0  0  0  0  0
    2.4350   10.9965   -3.5576 H   0  0  0  0  0  0  0  0  0  0  0  0
    0.0982    9.7826   -3.6377 H   0  0  0  0  0  0  0  0  0  0  0  0
   -0.2407   12.3372   -0.5302 H   0  0  0  0  0  0  0  0  0  0  0  0
    1.6884   10.1567    0.4798 H   0  0  0  0  0  0  0  0  0  0  0  0
    1.1208   11.6222    1.3960 H   0  0  0  0  0  0  0  0  0  0  0  0
   -0.0597    9.5638    2.0980 H   0  0  0  0  0  0  0  0  0  0  0  0
   -1.1617   10.7949    1.3655 H   0  0  0  0  0  0  0  0  0  0  0  0
   -1.7606    8.6282    0.5266 H   0  0  0  0  0  0  0  0  0  0  0  0
    0.0980    7.6810   -0.8960 H   0  0  0  0  0  0  0  0  0  0  0  0
   -2.6769   10.7072   -0.0723 H   0  0  0  0  0  0  0  0  0  0  0  0
   -2.2651   11.5124   -1.6242 H   0  0  0  0  0  0  0  0  0  0  0  0
   -3.2655   10.0205   -1.6242 H   0  0  0  0  0  0  0  0  0  0  0  0
   -1.7403    7.6223   -1.6418 H   0  0  0  0  0  0  0  0  0  0  0  0
   -2.3325    8.8127   -2.8497 H   0  0  0  0  0  0  0  0  0  0  0  0
   -0.6062    8.3162   -2.8497 H   0  0  0  0  0  0  0  0  0  0  0  0
    3.2939   11.6542    0.1497 H   0  0  0  0  0  0  0  0  0  0  0  0
    3.0719   10.7505   -1.3868 H   0  0  0  0  0  0  0  0  0  0  0  0
    3.9417   12.3222   -1.3868 H   0  0  0  0  0  0  0  0  0  0  0  0
    1.4851   13.5453    0.7092 H   0  0  0  0  0  0  0  0  0  0  0  0
    2.8679   14.1504   -0.3657 H   0  0  0  0  0  0  0  0  0  0  0  0
   -0.0875   14.7692   -0.6318 H   0  0  0  0  0  0  0  0  0  0  0  0
    1.2674   15.8906   -0.2145 H   0  0  0  0  0  0  0  0  0  0  0  0
    3.1862   15.7961   -1.4604 H   0  0  0  0  0  0  0  0  0  0  0  0
    3.2484   14.8834   -3.0063 H   0  0  0  0  0  0  0  0  0  0  0  0
    2.7881   16.6197   -3.0063 H   0  0  0  0  0  0  0  0  0  0  0  0
  1  2  1  0
  2  3  1  0
  3  4  1  0
  4  5  1  0
  5  6  1  0
  6  7  1  0
  7  8  1  0
  7  9  1  0
  2 10  1  0
 10 11  1  0
 11 12  1  0
 12 13  1  0
 13 14  1  1
 13 15  1  0
 15 16  1  0
 16 17  1  0
 17 18  2  0
 18 19  1  0
 19 20  1  0
 20 21  1  0
 21 22  1  0
 22 23  1  0
 22 24  1  0
 24 25  1  0
 24 26  1  0
 19 27  1  0
 27 28  1  6
 27 29  1  0
 29 30  1  0
 30 31  1  0
 31 32  1  1
  7  5  1  0
 31 10  1  0
 31 13  1  0
 27 15  1  0
 24 18  1  0
  1 33  1  0
  1 34  1  0
  1 35  1  0
  2 36  1  6
  3 37  1  0
  3 38  1  0
  4 39  1  0
  4 40  1  0
  5 41  1  1
  8 42  1  0
  8 43  1  0
  8 44  1  0
  9 45  1  0
  9 46  1  0
  9 47  1  0
 10 48  1  1
 11 49  1  0
 11 50  1  0
 12 51  1  0
 12 52  1  0
 14 53  1  0
 14 54  1  0
 14 55  1  0
 15 56  1  6
 16 57  1  0
 16 58  1  0
 17 59  1  0
 19 60  1  1
 20 61  1  0
 20 62  1  0
 21 63  1  0
 21 64  1  0
 22 65  1  1
 23 66  1  0
 25 67  1  0
 25 68  1  0
 25 69  1  0
 26 70  1  0
 26 71  1  0
 26 72  1  0
 28 73  1  0
 28 74  1  0
 28 75  1  0
 29 76  1  0
 29 77  1  0
 30 78  1  0
 30 79  1  0
 32 80  1  0
 32 81  1  0
 32 82  1  0
M  END
>  <meeko>  (5) 
{"is_sidechain": [false], "intermolecular_energy": 2.731, "internal_energy": -0.839}

$$$$
EPH_relaxed_0001_pdb2pqr_Repair_381_r2_0001_out
     RDKit          3D

 82 86  0  0  0  0  0  0  0  0999 V2000
    3.6980   17.7900    0.7430 C   0  0  0  0  0  0  0  0  0  0  0  0
    2.7650   18.1500   -0.4170 C   0  0  2  0  0  0  0  0  0  0  0  0
    2.0620   19.5040   -0.1970 C   0  0  0  0  0  0  0  0  0  0  0  0
    1.0000   19.4750    0.9060 C   0  0  0  0  0  0  0  0  0  0  0  0
   -0.2880   20.0940    0.4520 C   0  0  2  0  0  0  0  0  0  0  0  0
   -1.2990   20.1810    1.4640 O   0  0  0  0  0  0  0  0  0  0  0  0
   -1.5930   19.3270    0.3470 C   0  0  0  0  0  0  0  0  0  0  0  0
   -1.6740   17.8740    0.6960 C   0  0  0  0  0  0  0  0  0  0  0  0
   -2.6640   19.8590   -0.5530 C   0  0  0  0  0  0  0  0  0  0  0  0
    1.7280   17.0490   -0.6090 C   0  0  1  0  0  0  0  0  0  0  0  0
    0.5150   17.5140   -1.4590 C   0  0  0  0  0  0  0  0  0  0  0  0
    0.0610   16.2900   -2.2970 C   0  0  0  0  0  0  0  0  0  0  0  0
    0.8020   15.0890   -1.6650 C   0  0  1  0  0  0  0  0  0  0  0  0
   -0.0480   14.7060   -0.4130 C   0  0  0  0  0  0  0  0  0  0  0  0
    1.0430   13.8570   -2.5980 C   0  0  2  0  0  0  0  0  0  0  0  0
   -0.2340   13.1700   -3.1130 C   0  0  0  0  0  0  0  0  0  0  0  0
   -0.7530   12.0640   -2.2550 C   0  0  0  0  0  0  0  0  0  0  0  0
   -0.0690   11.4490   -1.2720 C   0  0  0  0  0  0  0  0  0  0  0  0
    1.4030   11.7900   -1.0050 C   0  0  1  0  0  0  0  0  0  0  0  0
    2.2170   10.4790   -0.8430 C   0  0  0  0  0  0  0  0  0  0  0  0
    1.6300    9.5540    0.2190 C   0  0  0  0  0  0  0  0  0  0  0  0
    0.1840    9.1910   -0.1120 C   0  0  2  0  0  0  0  0  0  0  0  0
    0.1700    8.3910   -1.2990 O   0  0  0  0  0  0  0  0  0  0  0  0
   -0.7290   10.4330   -0.3080 C   0  0  0  0  0  0  0  0  0  0  0  0
   -0.9560   11.1330    1.0540 C   0  0  0  0  0  0  0  0  0  0  0  0
   -2.1220    9.9310   -0.7760 C   0  0  0  0  0  0  0  0  0  0  0  0
    2.0760   12.8040   -2.0270 C   0  0  1  0  0  0  0  0  0  0  0  0
    2.6420   12.0250   -3.2540 C   0  0  0  0  0  0  0  0  0  0  0  0
    3.3090   13.4920   -1.3310 C   0  0  0  0  0  0  0  0  0  0  0  0
    3.0250   14.7720   -0.5220 C   0  0  0  0  0  0  0  0  0  0  0  0
    2.1850   15.7600   -1.3370 C   0  0  2  0  0  0  0  0  0  0  0  0
    3.0240   16.1800   -2.5920 C   0  0  0  0  0  0  0  0  0  0  0  0
    3.1885   17.9866    1.6979 H   0  0  0  0  0  0  0  0  0  0  0  0
    3.9645   16.7245    0.6821 H   0  0  0  0  0  0  0  0  0  0  0  0
    4.6111   18.4004    0.6821 H   0  0  0  0  0  0  0  0  0  0  0  0
    3.3819   18.2422   -1.3231 H   0  0  0  0  0  0  0  0  0  0  0  0
    2.8233   20.2505    0.0736 H   0  0  0  0  0  0  0  0  0  0  0  0
    1.5441   19.7531   -1.1350 H   0  0  0  0  0  0  0  0  0  0  0  0
    0.8118   18.4297    1.1922 H   0  0  0  0  0  0  0  0  0  0  0  0
    1.3772   20.0559    1.7606 H   0  0  0  0  0  0  0  0  0  0  0  0
    0.2460   20.7423   -0.2583 H   0  0  0  0  0  0  0  0  0  0  0  0
   -1.6804   17.7595    1.7900 H   0  0  0  0  0  0  0  0  0  0  0  0
   -2.5973   17.4472    0.2773 H   0  0  0  0  0  0  0  0  0  0  0  0
   -0.8038   17.3473    0.2773 H   0  0  0  0  0  0  0  0  0  0  0  0
   -3.4849   20.2668    0.0552 H   0  0  0  0  0  0  0  0  0  0  0  0
   -2.2476   20.6550   -1.1878 H   0  0  0  0  0  0  0  0  0  0  0  0
   -3.0467   19.0462   -1.1878 H   0  0  0  0  0  0  0  0  0  0  0  0
    1.4992   16.8251    0.4434 H   0  0  0  0  0  0  0  0  0  0  0  0
   -0.3020   17.8478   -0.8025 H   0  0  0  0  0  0  0  0  0  0  0  0
    0.7883   18.3584   -2.1088 H   0  0  0  0  0  0  0  0  0  0  0  0
   -1.0284   16.1544   -2.2278 H   0  0  0  0  0  0  0  0  0  0  0  0
    0.2919   16.4073   -3.3661 H   0  0  0  0  0  0  0  0  0  0  0  0
    0.5107   14.9578    0.5005 H   0  0  0  0  0  0  0  0  0  0  0  0
   -0.9958   15.2640   -0.4286 H   0  0  0  0  0  0  0  0  0  0  0  0
   -0.2579   13.6263   -0.4286 H   0  0  0  0  0  0  0  0  0  0  0  0
    1.5118   14.3168   -3.4805 H   0  0  0  0  0  0  0  0  0  0  0  0
   -1.0211   13.9339   -3.1960 H   0  0  0  0  0  0  0  0  0  0  0  0
    0.0351   12.7087   -4.0747 H   0  0  0  0  0  0  0  0  0  0  0  0
   -1.7818   11.7225   -2.4419 H   0  0  0  0  0  0  0  0  0  0  0  0
    1.4179   12.3573   -0.0627 H   0  0  0  0  0  0  0  0  0  0  0  0
    2.2266    9.9485   -1.8065 H   0  0  0  0  0  0  0  0  0  0  0  0
    3.2327   10.7538   -0.5223 H   0  0  0  0  0  0  0  0  0  0  0  0
    2.2304    8.6335    0.2663 H   0  0  0  0  0  0  0  0  0  0  0  0
    1.6482   10.0754    1.1874 H   0  0  0  0  0  0  0  0  0  0  0  0
   -0.2221    8.6355    0.7462 H   0  0  0  0  0  0  0  0  0  0  0  0
   -0.7480    8.1130   -1.4550 H   0  0  0  0  0  0  0  0  0  0  0  0
   -0.7283   10.4309    1.8696 H   0  0  0  0  0  0  0  0  0  0  0  0
   -0.2961   12.0098    1.1301 H   0  0  0  0  0  0  0  0  0  0  0  0
   -2.0048   11.4557    1.1301 H   0  0  0  0  0  0  0  0  0  0  0  0
   -2.7449    9.7065    0.1024 H   0  0  0  0  0  0  0  0  0  0  0  0
   -2.6084   10.7104   -1.3809 H   0  0  0  0  0  0  0  0  0  0  0  0
   -1.9994    9.0205   -1.3809 H   0  0  0  0  0  0  0  0  0  0  0  0
    3.2546   11.1818   -2.9022 H   0  0  0  0  0  0  0  0  0  0  0  0
    1.8087   11.6440   -3.8626 H   0  0  0  0  0  0  0  0  0  0  0  0
    3.2619   12.6998   -3.8626 H   0  0  0  0  0  0  0  0  0  0  0  0
    3.7567   12.7575   -0.6454 H   0  0  0  0  0  0  0  0  0  0  0  0
    3.9634   13.8118   -2.1554 H   0  0  0  0  0  0  0  0  0  0  0  0
    2.4781   14.5048    0.3942 H   0  0  0  0  0  0  0  0  0  0  0  0
    3.9840   15.2493   -0.2723 H   0  0  0  0  0  0  0  0  0  0  0  0
    3.9631   16.6501   -2.2647 H   0  0  0  0  0  0  0  0  0  0  0  0
    3.2510   15.2892   -3.1962 H   0  0  0  0  0  0  0  0  0  0  0  0
    2.4469   16.8955   -3.1962 H   0  0  0  0  0  0  0  0  0  0  0  0
  1  2  1  0
  2  3  1  0
  3  4  1  0
  4  5  1  0
  5  6  1  0
  6  7  1  0
  7  8  1  0
  7  9  1  0
  2 10  1  0
 10 11  1  0
 11 12  1  0
 12 13  1  0
 13 14  1  1
 13 15  1  0
 15 16  1  0
 16 17  1  0
 17 18  2  0
 18 19  1  0
 19 20  1  0
 20 21  1  0
 21 22  1  0
 22 23  1  0
 22 24  1  0
 24 25  1  0
 24 26  1  0
 19 27  1  0
 27 28  1  6
 27 29  1  0
 29 30  1  0
 30 31  1  0
 31 32  1  6
  7  5  1  0
 31 10  1  0
 31 13  1  0
 27 15  1  0
 24 18  1  0
  1 33  1  0
  1 34  1  0
  1 35  1  0
  2 36  1  6
  3 37  1  0
  3 38  1  0
  4 39  1  0
  4 40  1  0
  5 41  1  6
  8 42  1  0
  8 43  1  0
  8 44  1  0
  9 45  1  0
  9 46  1  0
  9 47  1  0
 10 48  1  1
 11 49  1  0
 11 50  1  0
 12 51  1  0
 12 52  1  0
 14 53  1  0
 14 54  1  0
 14 55  1  0
 15 56  1  6
 16 57  1  0
 16 58  1  0
 17 59  1  0
 19 60  1  1
 20 61  1  0
 20 62  1  0
 21 63  1  0
 21 64  1  0
 22 65  1  1
 23 66  1  0
 25 67  1  0
 25 68  1  0
 25 69  1  0
 26 70  1  0
 26 71  1  0
 26 72  1  0
 28 73  1  0
 28 74  1  0
 28 75  1  0
 29 76  1  0
 29 77  1  0
 30 78  1  0
 30 79  1  0
 32 80  1  0
 32 81  1  0
 32 82  1  0
M  END
>  <meeko>  (6) 
{"is_sidechain": [false], "intermolecular_energy": 2.731, "internal_energy": -0.839}

$$$$
EPH_relaxed_0001_pdb2pqr_Repair_381_r2_0001_out
     RDKit          3D

 82 86  0  0  0  0  0  0  0  0999 V2000
  -13.0540    8.9370    2.1200 C   0  0  0  0  0  0  0  0  0  0  0  0
  -13.1460    9.0790    0.5980 C   0  0  2  0  0  0  0  0  0  0  0  0
  -14.5340    8.6780    0.0600 C   0  0  0  0  0  0  0  0  0  0  0  0
  -15.2770    9.8200   -0.6390 C   0  0  0  0  0  0  0  0  0  0  0  0
  -15.1720    9.7170   -2.1310 C   0  0  2  0  0  0  0  0  0  0  0  0
  -13.8630    9.9700   -2.6580 O   0  0  0  0  0  0  0  0  0  0  0  0
  -14.8880   10.9040   -3.0330 C   0  0  0  0  0  0  0  0  0  0  0  0
  -14.6920   12.2790   -2.4750 C   0  0  0  0  0  0  0  0  0  0  0  0
  -15.2850   10.8180   -4.4740 C   0  0  0  0  0  0  0  0  0  0  0  0
  -12.0650    8.2350   -0.0690 C   0  0  1  0  0  0  0  0  0  0  0  0
  -12.6300    7.3090   -1.1790 C   0  0  0  0  0  0  0  0  0  0  0  0
  -11.5480    7.2250   -2.2850 C   0  0  0  0  0  0  0  0  0  0  0  0
  -10.2790    7.8260   -1.6360 C   0  0  1  0  0  0  0  0  0  0  0  0
   -9.6770    6.6650   -0.7840 C   0  0  0  0  0  0  0  0  0  0  0  0
   -9.2220    8.4310   -2.6160 C   0  0  2  0  0  0  0  0  0  0  0  0
   -8.5950    7.4280   -3.6000 C   0  0  0  0  0  0  0  0  0  0  0  0
   -7.3510    6.7560   -3.1200 C   0  0  0  0  0  0  0  0  0  0  0  0
   -6.6030    7.1510   -2.0730 C   0  0  0  0  0  0  0  0  0  0  0  0
   -6.9330    8.4410   -1.3110 C   0  0  1  0  0  0  0  0  0  0  0  0
   -5.6350    9.2620   -1.0960 C   0  0  0  0  0  0  0  0  0  0  0  0
   -4.5350    8.4500   -0.4190 C   0  0  0  0  0  0  0  0  0  0  0  0
   -4.1940    7.2060   -1.2350 C   0  0  2  0  0  0  0  0  0  0  0  0
   -3.5970    7.6150   -2.4700 O   0  0  0  0  0  0  0  0  0  0  0  0
   -5.4270    6.3060   -1.5240 C   0  0  0  0  0  0  0  0  0  0  0  0
   -5.8900    5.6220   -0.2140 C   0  0  0  0  0  0  0  0  0  0  0  0
   -4.9730    5.1640   -2.4730 C   0  0  0  0  0  0  0  0  0  0  0  0
   -8.1160    9.3170   -1.9110 C   0  0  1  0  0  0  0  0  0  0  0  0
   -7.5620   10.2870   -2.9990 C   0  0  0  0  0  0  0  0  0  0  0  0
   -8.7140   10.2230   -0.7700 C   0  0  0  0  0  0  0  0  0  0  0  0
   -9.8380    9.6110    0.0870 C   0  0  0  0  0  0  0  0  0  0  0  0
  -10.9240    8.9880   -0.7970 C   0  0  2  0  0  0  0  0  0  0  0  0
  -11.5630   10.1360   -1.6500 C   0  0  0  0  0  0  0  0  0  0  0  0
  -13.5924    9.7681    2.5990 H   0  0  0  0  0  0  0  0  0  0  0  0
  -13.5055    7.9821    2.4271 H   0  0  0  0  0  0  0  0  0  0  0  0
  -11.9980    8.9588    2.4271 H   0  0  0  0  0  0  0  0  0  0  0  0
  -12.9921   10.1407    0.3549 H   0  0  0  0  0  0  0  0  0  0  0  0
  -14.4033    7.8567   -0.6600 H   0  0  0  0  0  0  0  0  0  0  0  0
  -15.1420    8.3827    0.9278 H   0  0  0  0  0  0  0  0  0  0  0  0
  -16.3384    9.7829   -0.3527 H   0  0  0  0  0  0  0  0  0  0  0  0
  -14.8182   10.7699   -0.3272 H   0  0  0  0  0  0  0  0  0  0  0  0
  -15.9507    8.9405   -2.1561 H   0  0  0  0  0  0  0  0  0  0  0  0
  -14.6985   12.2331   -1.3760 H   0  0  0  0  0  0  0  0  0  0  0  0
  -13.7275   12.6805   -2.8195 H   0  0  0  0  0  0  0  0  0  0  0  0
  -15.5059   12.9340   -2.8195 H   0  0  0  0  0  0  0  0  0  0  0  0
  -16.3578   10.5856   -4.5455 H   0  0  0  0  0  0  0  0  0  0  0  0
  -15.0846   11.7804   -4.9676 H   0  0  0  0  0  0  0  0  0  0  0  0
  -14.7043   10.0248   -4.9676 H   0  0  0  0  0  0  0  0  0  0  0  0
  -11.6682    7.7122    0.8137 H   0  0  0  0  0  0  0  0  0  0  0  0
  -12.8325    6.3080   -0.7704 H   0  0  0  0  0  0  0  0  0  0  0  0
  -13.5748    7.7045   -1.5801 H   0  0  0  0  0  0  0  0  0  0  0  0
  -11.3751    6.1796   -2.5805 H   0  0  0  0  0  0  0  0  0  0  0  0
  -11.8431    7.7614   -3.1988 H   0  0  0  0  0  0  0  0  0  0  0  0
   -9.7962    6.8948    0.2851 H   0  0  0  0  0  0  0  0  0  0  0  0
  -10.2026    5.7275   -1.0183 H   0  0  0  0  0  0  0  0  0  0  0  0
   -8.6080    6.5544   -1.0183 H   0  0  0  0  0  0  0  0  0  0  0  0
   -9.8318    9.1104   -3.2297 H   0  0  0  0  0  0  0  0  0  0  0  0
   -9.3417    6.6488   -3.8129 H   0  0  0  0  0  0  0  0  0  0  0  0
   -8.3030    8.0122   -4.4851 H   0  0  0  0  0  0  0  0  0  0  0  0
   -7.0177    5.8626   -3.6684 H   0  0  0  0  0  0  0  0  0  0  0  0
   -7.3398    8.1244   -0.3392 H   0  0  0  0  0  0  0  0  0  0  0  0
   -5.2685    9.6051   -2.0748 H   0  0  0  0  0  0  0  0  0  0  0  0
   -5.8800   10.1076   -0.4365 H   0  0  0  0  0  0  0  0  0  0  0  0
   -3.6347    9.0745   -0.3216 H   0  0  0  0  0  0  0  0  0  0  0  0
   -4.8923    8.1327    0.5718 H   0  0  0  0  0  0  0  0  0  0  0  0
   -3.4969    6.6001   -0.6376 H   0  0  0  0  0  0  0  0  0  0  0  0
   -3.2020    8.4920   -2.3300 H   0  0  0  0  0  0  0  0  0  0  0  0
   -5.5079    6.1865    0.6493 H   0  0  0  0  0  0  0  0  0  0  0  0
   -6.9893    5.6003   -0.1804 H   0  0  0  0  0  0  0  0  0  0  0  0
   -5.5017    4.5934   -0.1804 H   0  0  0  0  0  0  0  0  0  0  0  0
   -4.6316    4.3053   -1.8763 H   0  0  0  0  0  0  0  0  0  0  0  0
   -5.8175    4.8570   -3.1075 H   0  0  0  0  0  0  0  0  0  0  0  0
   -4.1483    5.5206   -3.1075 H   0  0  0  0  0  0  0  0  0  0  0  0
   -7.0729   11.1434   -2.5119 H   0  0  0  0  0  0  0  0  0  0  0  0
   -6.8313    9.7555   -3.6263 H   0  0  0  0  0  0  0  0  0  0  0  0
   -8.3911   10.6463   -3.6263 H   0  0  0  0  0  0  0  0  0  0  0  0
   -7.8897   10.4933   -0.0936 H   0  0  0  0  0  0  0  0  0  0  0  0
   -9.1802   11.0718   -1.2917 H   0  0  0  0  0  0  0  0  0  0  0  0
   -9.4119    8.8321    0.7365 H   0  0  0  0  0  0  0  0  0  0  0  0
  -10.2929   10.4096    0.6914 H   0  0  0  0  0  0  0  0  0  0  0  0
  -11.9872   10.8982   -0.9798 H   0  0  0  0  0  0  0  0  0  0  0  0
  -10.7905   10.5948   -2.2846 H   0  0  0  0  0  0  0  0  0  0  0  0
  -12.3600    9.7212   -2.2846 H   0  0  0  0  0  0  0  0  0  0  0  0
  1  2  1  0
  2  3  1  0
  3  4  1  0
  4  5  1  0
  5  6  1  0
  6  7  1  0
  7  8  1  0
  7  9  1  0
  2 10  1  0
 10 11  1  0
 11 12  1  0
 12 13  1  0
 13 14  1  1
 13 15  1  0
 15 16  1  0
 16 17  1  0
 17 18  2  0
 18 19  1  0
 19 20  1  0
 20 21  1  0
 21 22  1  0
 22 23  1  0
 22 24  1  0
 24 25  1  0
 24 26  1  0
 19 27  1  0
 27 28  1  6
 27 29  1  0
 29 30  1  0
 30 31  1  0
 31 32  1  6
  7  5  1  0
 31 10  1  0
 31 13  1  0
 27 15  1  0
 24 18  1  0
  1 33  1  0
  1 34  1  0
  1 35  1  0
  2 36  1  1
  3 37  1  0
  3 38  1  0
  4 39  1  0
  4 40  1  0
  5 41  1  6
  8 42  1  0
  8 43  1  0
  8 44  1  0
  9 45  1  0
  9 46  1  0
  9 47  1  0
 10 48  1  1
 11 49  1  0
 11 50  1  0
 12 51  1  0
 12 52  1  0
 14 53  1  0
 14 54  1  0
 14 55  1  0
 15 56  1  6
 16 57  1  0
 16 58  1  0
 17 59  1  0
 19 60  1  1
 20 61  1  0
 20 62  1  0
 21 63  1  0
 21 64  1  0
 22 65  1  1
 23 66  1  0
 25 67  1  0
 25 68  1  0
 25 69  1  0
 26 70  1  0
 26 71  1  0
 26 72  1  0
 28 73  1  0
 28 74  1  0
 28 75  1  0
 29 76  1  0
 29 77  1  0
 30 78  1  0
 30 79  1  0
 32 80  1  0
 32 81  1  0
 32 82  1  0
M  END
>  <meeko>  (7) 
{"is_sidechain": [false], "intermolecular_energy": 2.731, "internal_energy": -0.839}

$$$$
EPH_relaxed_0001_pdb2pqr_Repair_381_r2_0001_out
     RDKit          3D

 82 86  0  0  0  0  0  0  0  0999 V2000
   -4.9520    6.1150   -1.8930 C   0  0  0  0  0  0  0  0  0  0  0  0
   -5.3390    7.5950   -1.8270 C   0  0  2  0  0  0  0  0  0  0  0  0
   -5.1520    8.1820   -0.4140 C   0  0  0  0  0  0  0  0  0  0  0  0
   -4.0330    9.2240   -0.3240 C   0  0  0  0  0  0  0  0  0  0  0  0
   -2.7150    8.6620   -0.7640 C   0  0  2  0  0  0  0  0  0  0  0  0
   -1.6170    8.9580    0.1080 O   0  0  0  0  0  0  0  0  0  0  0  0
   -1.5470    9.5200   -1.2120 C   0  0  0  0  0  0  0  0  0  0  0  0
   -1.6430   11.0130   -1.2450 C   0  0  0  0  0  0  0  0  0  0  0  0
   -0.4940    8.9000   -2.0770 C   0  0  0  0  0  0  0  0  0  0  0  0
   -6.7840    7.7740   -2.2790 C   0  0  1  0  0  0  0  0  0  0  0  0
   -7.0840    7.0540   -3.6200 C   0  0  0  0  0  0  0  0  0  0  0  0
   -8.5440    6.5390   -3.5340 C   0  0  0  0  0  0  0  0  0  0  0  0
   -9.1390    7.2590   -2.3010 C   0  0  1  0  0  0  0  0  0  0  0  0
   -9.5360    8.6770   -2.8170 C   0  0  0  0  0  0  0  0  0  0  0  0
  -10.3380    6.5440   -1.5960 C   0  0  2  0  0  0  0  0  0  0  0  0
  -11.5970    6.3720   -2.4640 C   0  0  0  0  0  0  0  0  0  0  0  0
  -12.5830    7.4910   -2.3860 C   0  0  0  0  0  0  0  0  0  0  0  0
  -12.6040    8.4510   -1.4430 C   0  0  0  0  0  0  0  0  0  0  0  0
  -11.6260    8.4160   -0.2620 C   0  0  1  0  0  0  0  0  0  0  0  0
  -12.3960    8.6890    1.0560 C   0  0  0  0  0  0  0  0  0  0  0  0
  -13.2040    9.9830    1.0050 C   0  0  0  0  0  0  0  0  0  0  0  0
  -14.2050    9.9550   -0.1470 C   0  0  2  0  0  0  0  0  0  0  0  0
  -15.1920    8.9540    0.1240 O   0  0  0  0  0  0  0  0  0  0  0  0
  -13.5450    9.6780   -1.5260 C   0  0  0  0  0  0  0  0  0  0  0  0
  -12.7060   10.9060   -1.9580 C   0  0  0  0  0  0  0  0  0  0  0  0
  -14.6780    9.5350   -2.5780 C   0  0  0  0  0  0  0  0  0  0  0  0
  -10.6950    7.1310   -0.1700 C   0  0  1  0  0  0  0  0  0  0  0  0
  -11.4290    5.9970    0.6080 C   0  0  0  0  0  0  0  0  0  0  0  0
   -9.4110    7.4860    0.6690 C   0  0  0  0  0  0  0  0  0  0  0  0
   -8.2170    8.0780   -0.1040 C   0  0  0  0  0  0  0  0  0  0  0  0
   -7.8940    7.2360   -1.3420 C   0  0  2  0  0  0  0  0  0  0  0  0
   -7.4690    5.8090   -0.8530 C   0  0  0  0  0  0  0  0  0  0  0  0
   -4.8480    5.7173   -0.8727 H   0  0  0  0  0  0  0  0  0  0  0  0
   -5.7339    5.5550   -2.4269 H   0  0  0  0  0  0  0  0  0  0  0  0
   -3.9961    6.0094   -2.4269 H   0  0  0  0  0  0  0  0  0  0  0  0
   -4.6668    8.1437   -2.5031 H   0  0  0  0  0  0  0  0  0  0  0  0
   -6.0953    8.6579   -0.1079 H   0  0  0  0  0  0  0  0  0  0  0  0
   -4.8693    7.3485    0.2459 H   0  0  0  0  0  0  0  0  0  0  0  0
   -4.2889   10.0784   -0.9678 H   0  0  0  0  0  0  0  0  0  0  0  0
   -3.9390    9.5361    0.7266 H   0  0  0  0  0  0  0  0  0  0  0  0
   -3.2118    7.7944   -1.2229 H   0  0  0  0  0  0  0  0  0  0  0  0
   -1.6680   11.4016   -0.2162 H   0  0  0  0  0  0  0  0  0  0  0  0
   -0.7695   11.4250   -1.7715 H   0  0  0  0  0  0  0  0  0  0  0  0
   -2.5621   11.3098   -1.7715 H   0  0  0  0  0  0  0  0  0  0  0  0
    0.2802    8.4441   -1.4424 H   0  0  0  0  0  0  0  0  0  0  0  0
   -0.9500    8.1262   -2.7121 H   0  0  0  0  0  0  0  0  0  0  0  0
   -0.0386    9.6741   -2.7121 H   0  0  0  0  0  0  0  0  0  0  0  0
   -6.8287    8.8722   -2.3227 H   0  0  0  0  0  0  0  0  0  0  0  0
   -6.9792    7.7572   -4.4593 H   0  0  0  0  0  0  0  0  0  0  0  0
   -6.3817    6.2244   -3.7887 H   0  0  0  0  0  0  0  0  0  0  0  0
   -9.1028    6.8017   -4.4444 H   0  0  0  0  0  0  0  0  0  0  0  0
   -8.5957    5.4440   -3.4432 H   0  0  0  0  0  0  0  0  0  0  0  0
   -9.7218    9.3405   -1.9595 H   0  0  0  0  0  0  0  0  0  0  0  0
   -8.7182    9.0872   -3.4276 H   0  0  0  0  0  0  0  0  0  0  0  0
  -10.4479    8.6029   -3.4276 H   0  0  0  0  0  0  0  0  0  0  0  0
   -9.9455    5.5292   -1.4345 H   0  0  0  0  0  0  0  0  0  0  0  0
  -11.2767    6.2735   -3.5117 H   0  0  0  0  0  0  0  0  0  0  0  0
  -12.1149    5.4823   -2.0763 H   0  0  0  0  0  0  0  0  0  0  0  0
  -13.3579    7.5342   -3.1655 H   0  0  0  0  0  0  0  0  0  0  0  0
  -10.9004    9.2224   -0.4444 H   0  0  0  0  0  0  0  0  0  0  0  0
  -13.0838    7.8510    1.2425 H   0  0  0  0  0  0  0  0  0  0  0  0
  -11.6536    8.7906    1.8613 H   0  0  0  0  0  0  0  0  0  0  0  0
  -13.7489   10.1049    1.9527 H   0  0  0  0  0  0  0  0  0  0  0  0
  -12.5119   10.8236    0.8489 H   0  0  0  0  0  0  0  0  0  0  0  0
  -14.6600   10.9543   -0.2127 H   0  0  0  0  0  0  0  0  0  0  0  0
  -15.6010    8.7080   -0.7220 H   0  0  0  0  0  0  0  0  0  0  0  0
  -12.3442   11.4356   -1.0643 H   0  0  0  0  0  0  0  0  0  0  0  0
  -11.8474   10.5706   -2.5582 H   0  0  0  0  0  0  0  0  0  0  0  0
  -13.3305   11.5840   -2.5582 H   0  0  0  0  0  0  0  0  0  0  0  0
  -15.6427    9.4132   -2.0637 H   0  0  0  0  0  0  0  0  0  0  0  0
  -14.7095   10.4363   -3.2078 H   0  0  0  0  0  0  0  0  0  0  0  0
  -14.4845    8.6541   -3.2078 H   0  0  0  0  0  0  0  0  0  0  0  0
  -11.3204    6.1648    1.6897 H   0  0  0  0  0  0  0  0  0  0  0  0
  -12.4963    6.0010    0.3417 H   0  0  0  0  0  0  0  0  0  0  0  0
  -10.9883    5.0250    0.3417 H   0  0  0  0  0  0  0  0  0  0  0  0
   -9.7064    8.2173    1.4358 H   0  0  0  0  0  0  0  0  0  0  0  0
   -9.0501    6.5245    1.0631 H   0  0  0  0  0  0  0  0  0  0  0  0
   -8.4649    9.1021   -0.4199 H   0  0  0  0  0  0  0  0  0  0  0  0
   -7.3379    8.0813    0.5572 H   0  0  0  0  0  0  0  0  0  0  0  0
   -7.4619    5.7853    0.2467 H   0  0  0  0  0  0  0  0  0  0  0  0
   -8.1842    5.0637   -1.2312 H   0  0  0  0  0  0  0  0  0  0  0  0
   -6.4626    5.5764   -1.2312 H   0  0  0  0  0  0  0  0  0  0  0  0
  1  2  1  0
  2  3  1  0
  3  4  1  0
  4  5  1  0
  5  6  1  0
  6  7  1  0
  7  8  1  0
  7  9  1  0
  2 10  1  0
 10 11  1  0
 11 12  1  0
 12 13  1  0
 13 14  1  6
 13 15  1  0
 15 16  1  0
 16 17  1  0
 17 18  2  0
 18 19  1  0
 19 20  1  0
 20 21  1  0
 21 22  1  0
 22 23  1  0
 22 24  1  0
 24 25  1  0
 24 26  1  0
 19 27  1  0
 27 28  1  1
 27 29  1  0
 29 30  1  0
 30 31  1  0
 31 32  1  1
  7  5  1  0
 31 10  1  0
 31 13  1  0
 27 15  1  0
 24 18  1  0
  1 33  1  0
  1 34  1  0
  1 35  1  0
  2 36  1  6
  3 37  1  0
  3 38  1  0
  4 39  1  0
  4 40  1  0
  5 41  1  6
  8 42  1  0
  8 43  1  0
  8 44  1  0
  9 45  1  0
  9 46  1  0
  9 47  1  0
 10 48  1  6
 11 49  1  0
 11 50  1  0
 12 51  1  0
 12 52  1  0
 14 53  1  0
 14 54  1  0
 14 55  1  0
 15 56  1  1
 16 57  1  0
 16 58  1  0
 17 59  1  0
 19 60  1  6
 20 61  1  0
 20 62  1  0
 21 63  1  0
 21 64  1  0
 22 65  1  6
 23 66  1  0
 25 67  1  0
 25 68  1  0
 25 69  1  0
 26 70  1  0
 26 71  1  0
 26 72  1  0
 28 73  1  0
 28 74  1  0
 28 75  1  0
 29 76  1  0
 29 77  1  0
 30 78  1  0
 30 79  1  0
 32 80  1  0
 32 81  1  0
 32 82  1  0
M  END
>  <meeko>  (8) 
{"is_sidechain": [false], "intermolecular_energy": 2.731, "internal_energy": -0.839}

$$$$
EPH_relaxed_0001_pdb2pqr_Repair_381_r2_0001_out
     RDKit          3D

 82 86  0  0  0  0  0  0  0  0999 V2000
   -4.9270    7.0740    0.4840 C   0  0  0  0  0  0  0  0  0  0  0  0
   -4.8740    8.2710   -0.4690 C   0  0  2  0  0  0  0  0  0  0  0  0
   -3.7920    9.2910   -0.0600 C   0  0  0  0  0  0  0  0  0  0  0  0
   -2.4200    9.0150   -0.6820 C   0  0  0  0  0  0  0  0  0  0  0  0
   -1.4230   10.0730   -0.3160 C   0  0  2  0  0  0  0  0  0  0  0  0
   -1.4060   11.2080   -1.1920 O   0  0  0  0  0  0  0  0  0  0  0  0
   -0.2120   10.4100   -1.1650 C   0  0  0  0  0  0  0  0  0  0  0  0
    0.0680    9.6890   -2.4470 C   0  0  0  0  0  0  0  0  0  0  0  0
    0.9520   11.0890   -0.5130 C   0  0  0  0  0  0  0  0  0  0  0  0
   -6.2360    8.9520   -0.5250 C   0  0  1  0  0  0  0  0  0  0  0  0
   -6.1810   10.3450   -1.2050 C   0  0  0  0  0  0  0  0  0  0  0  0
   -7.5140   10.5200   -1.9780 C   0  0  0  0  0  0  0  0  0  0  0  0
   -8.4200    9.3820   -1.4530 C   0  0  1  0  0  0  0  0  0  0  0  0
   -8.9890    9.9140   -0.1000 C   0  0  0  0  0  0  0  0  0  0  0  0
   -9.5610    8.9090   -2.4120 C   0  0  2  0  0  0  0  0  0  0  0  0
  -10.6110    9.9790   -2.7550 C   0  0  0  0  0  0  0  0  0  0  0  0
  -11.7890   10.0340   -1.8380 C   0  0  0  0  0  0  0  0  0  0  0  0
  -12.1380    9.0790   -0.9560 C   0  0  0  0  0  0  0  0  0  0  0  0
  -11.3700    7.7530   -0.8860 C   0  0  1  0  0  0  0  0  0  0  0  0
  -12.3770    6.5730   -0.8360 C   0  0  0  0  0  0  0  0  0  0  0  0
  -13.3940    6.7200    0.2920 C   0  0  0  0  0  0  0  0  0  0  0  0
  -14.1770    8.0230    0.1550 C   0  0  2  0  0  0  0  0  0  0  0  0
  -14.9900    7.9500   -1.0210 O   0  0  0  0  0  0  0  0  0  0  0  0
  -13.2670    9.2800    0.0850 C   0  0  0  0  0  0  0  0  0  0  0  0
  -12.6150    9.5290    1.4670 C   0  0  0  0  0  0  0  0  0  0  0  0
  -14.1730   10.5100   -0.1950 C   0  0  0  0  0  0  0  0  0  0  0  0
  -10.2420    7.5460   -1.9860 C   0  0  1  0  0  0  0  0  0  0  0  0
  -10.8650    6.9360   -3.2790 C   0  0  0  0  0  0  0  0  0  0  0  0
   -9.1970    6.4930   -1.4580 C   0  0  0  0  0  0  0  0  0  0  0  0
   -8.0270    7.0380   -0.6160 C   0  0  0  0  0  0  0  0  0  0  0  0
   -7.3600    8.2300   -1.3100 C   0  0  2  0  0  0  0  0  0  0  0  0
   -6.7590    7.7200   -2.6640 C   0  0  0  0  0  0  0  0  0  0  0  0
   -4.9111    7.4323    1.5239 H   0  0  0  0  0  0  0  0  0  0  0  0
   -5.8512    6.5046    0.3064 H   0  0  0  0  0  0  0  0  0  0  0  0
   -4.0567    6.4251    0.3064 H   0  0  0  0  0  0  0  0  0  0  0  0
   -4.6083    7.8887   -1.4656 H   0  0  0  0  0  0  0  0  0  0  0  0
   -4.1213   10.2920   -0.3753 H   0  0  0  0  0  0  0  0  0  0  0  0
   -3.6723    9.2131    1.0307 H   0  0  0  0  0  0  0  0  0  0  0  0
   -2.0550    8.0415   -0.3228 H   0  0  0  0  0  0  0  0  0  0  0  0
   -2.5332    9.0139   -1.7762 H   0  0  0  0  0  0  0  0  0  0  0  0
   -1.5327    9.8402    0.7535 H   0  0  0  0  0  0  0  0  0  0  0  0
    0.4580    8.6847   -2.2252 H   0  0  0  0  0  0  0  0  0  0  0  0
   -0.8614    9.6012   -3.0288 H   0  0  0  0  0  0  0  0  0  0  0  0
    0.8131   10.2515   -3.0288 H   0  0  0  0  0  0  0  0  0  0  0  0
    0.8469   11.0277    0.5803 H   0  0  0  0  0  0  0  0  0  0  0  0
    1.8847   10.5933   -0.8201 H   0  0  0  0  0  0  0  0  0  0  0  0
    0.9796   12.1449   -0.8201 H   0  0  0  0  0  0  0  0  0  0  0  0
   -6.4769    8.9695    0.5482 H   0  0  0  0  0  0  0  0  0  0  0  0
   -6.0778   11.1335   -0.4450 H   0  0  0  0  0  0  0  0  0  0  0  0
   -5.3187   10.4187   -1.8840 H   0  0  0  0  0  0  0  0  0  0  0  0
   -7.9609   11.5022   -1.7646 H   0  0  0  0  0  0  0  0  0  0  0  0
   -7.3740   10.4733   -3.0681 H   0  0  0  0  0  0  0  0  0  0  0  0
   -8.4661    9.4251    0.7352 H   0  0  0  0  0  0  0  0  0  0  0  0
   -8.8375   11.0019   -0.0410 H   0  0  0  0  0  0  0  0  0  0  0  0
  -10.0643    9.6898   -0.0410 H   0  0  0  0  0  0  0  0  0  0  0  0
   -9.0167    8.7150   -3.3480 H   0  0  0  0  0  0  0  0  0  0  0  0
  -10.1158   10.9610   -2.7315 H   0  0  0  0  0  0  0  0  0  0  0  0
  -11.0081    9.7094   -3.7448 H   0  0  0  0  0  0  0  0  0  0  0  0
  -12.4247   10.9303   -1.8877 H   0  0  0  0  0  0  0  0  0  0  0  0
  -10.7886    7.7875    0.0472 H   0  0  0  0  0  0  0  0  0  0  0  0
  -12.9164    6.5287   -1.7937 H   0  0  0  0  0  0  0  0  0  0  0  0
  -11.8041    5.6523   -0.6515 H   0  0  0  0  0  0  0  0  0  0  0  0
  -14.0953    5.8733    0.2568 H   0  0  0  0  0  0  0  0  0  0  0  0
  -12.8550    6.7338    1.2508 H   0  0  0  0  0  0  0  0  0  0  0  0
  -14.7945    8.1341    1.0585 H   0  0  0  0  0  0  0  0  0  0  0  0
  -15.4630    7.1010   -1.0000 H   0  0  0  0  0  0  0  0  0  0  0  0
  -13.3254    9.2577    2.2618 H   0  0  0  0  0  0  0  0  0  0  0  0
  -11.7077    8.9141    1.5605 H   0  0  0  0  0  0  0  0  0  0  0  0
  -12.3486   10.5921    1.5605 H   0  0  0  0  0  0  0  0  0  0  0  0
  -14.4978   10.9509    0.7590 H   0  0  0  0  0  0  0  0  0  0  0  0
  -13.6083   11.2578   -0.7712 H   0  0  0  0  0  0  0  0  0  0  0  0
  -15.0546   10.1925   -0.7712 H   0  0  0  0  0  0  0  0  0  0  0  0
  -11.6259    6.1910   -3.0032 H   0  0  0  0  0  0  0  0  0  0  0  0
  -11.3326    7.7351   -3.8729 H   0  0  0  0  0  0  0  0  0  0  0  0
  -10.0759    6.4516   -3.8729 H   0  0  0  0  0  0  0  0  0  0  0  0
   -9.7418    5.7649   -0.8390 H   0  0  0  0  0  0  0  0  0  0  0  0
   -8.7306    6.0723   -2.3610 H   0  0  0  0  0  0  0  0  0  0  0  0
   -8.4085    7.3598    0.3643 H   0  0  0  0  0  0  0  0  0  0  0  0
   -7.2800    6.2396   -0.4955 H   0  0  0  0  0  0  0  0  0  0  0  0
   -5.9350    7.0207   -2.4591 H   0  0  0  0  0  0  0  0  0  0  0  0
   -7.5412    7.2058   -3.2418 H   0  0  0  0  0  0  0  0  0  0  0  0
   -6.3789    8.5754   -3.2418 H   0  0  0  0  0  0  0  0  0  0  0  0
  1  2  1  0
  2  3  1  0
  3  4  1  0
  4  5  1  0
  5  6  1  0
  6  7  1  0
  7  8  1  0
  7  9  1  0
  2 10  1  0
 10 11  1  0
 11 12  1  0
 12 13  1  0
 13 14  1  1
 13 15  1  0
 15 16  1  0
 16 17  1  0
 17 18  2  0
 18 19  1  0
 19 20  1  0
 20 21  1  0
 21 22  1  0
 22 23  1  0
 22 24  1  0
 24 25  1  0
 24 26  1  0
 19 27  1  0
 27 28  1  6
 27 29  1  0
 29 30  1  0
 30 31  1  0
 31 32  1  6
  7  5  1  0
 31 10  1  0
 31 13  1  0
 27 15  1  0
 24 18  1  0
  1 33  1  0
  1 34  1  0
  1 35  1  0
  2 36  1  6
  3 37  1  0
  3 38  1  0
  4 39  1  0
  4 40  1  0
  5 41  1  1
  8 42  1  0
  8 43  1  0
  8 44  1  0
  9 45  1  0
  9 46  1  0
  9 47  1  0
 10 48  1  1
 11 49  1  0
 11 50  1  0
 12 51  1  0
 12 52  1  0
 14 53  1  0
 14 54  1  0
 14 55  1  0
 15 56  1  6
 16 57  1  0
 16 58  1  0
 17 59  1  0
 19 60  1  1
 20 61  1  0
 20 62  1  0
 21 63  1  0
 21 64  1  0
 22 65  1  1
 23 66  1  0
 25 67  1  0
 25 68  1  0
 25 69  1  0
 26 70  1  0
 26 71  1  0
 26 72  1  0
 28 73  1  0
 28 74  1  0
 28 75  1  0
 29 76  1  0
 29 77  1  0
 30 78  1  0
 30 79  1  0
 32 80  1  0
 32 81  1  0
 32 82  1  0
M  END
>  <meeko>  (9) 
{"is_sidechain": [false], "intermolecular_energy": 2.731, "internal_energy": -0.839}

$$$$
EPH_relaxed_0001_pdb2pqr_Repair_381_r2_0001_out
     RDKit          3D

 82 86  0  0  0  0  0  0  0  0999 V2000
    0.4400    8.8490   -2.5250 C   0  0  0  0  0  0  0  0  0  0  0  0
    1.1980   10.0090   -3.1760 C   0  0  2  0  0  0  0  0  0  0  0  0
    2.6920   10.0140   -2.7950 C   0  0  0  0  0  0  0  0  0  0  0  0
    3.6020   10.5990   -3.8790 C   0  0  0  0  0  0  0  0  0  0  0  0
    4.9910   10.8350   -3.3680 C   0  0  2  0  0  0  0  0  0  0  0  0
    5.5960   12.0530   -3.8220 O   0  0  0  0  0  0  0  0  0  0  0  0
    6.2200   10.8340   -4.2570 C   0  0  0  0  0  0  0  0  0  0  0  0
    6.1180   10.5900   -5.7300 C   0  0  0  0  0  0  0  0  0  0  0  0
    7.5560   10.5840   -3.6300 C   0  0  0  0  0  0  0  0  0  0  0  0
    0.5560   11.3350   -2.7830 C   0  0  1  0  0  0  0  0  0  0  0  0
   -0.8270   11.1500   -2.1020 C   0  0  0  0  0  0  0  0  0  0  0  0
   -0.9510   12.2660   -1.0330 C   0  0  0  0  0  0  0  0  0  0  0  0
    0.2020   13.2450   -1.3550 C   0  0  1  0  0  0  0  0  0  0  0  0
   -0.3390   14.1300   -2.5220 C   0  0  0  0  0  0  0  0  0  0  0  0
    0.7230   14.1150   -0.1650 C   0  0  2  0  0  0  0  0  0  0  0  0
   -0.3130   15.0780    0.4420 C   0  0  0  0  0  0  0  0  0  0  0  0
   -0.3520   16.4400   -0.1690 C   0  0  0  0  0  0  0  0  0  0  0  0
    0.5960   16.9670   -0.9660 C   0  0  0  0  0  0  0  0  0  0  0  0
    1.9000   16.2090   -1.2470 C   0  0  1  0  0  0  0  0  0  0  0  0
    3.1050   17.1730   -1.0860 C   0  0  0  0  0  0  0  0  0  0  0  0
    2.9660   18.4310   -1.9380 C   0  0  0  0  0  0  0  0  0  0  0  0
    1.6880   19.1880   -1.5880 C   0  0  2  0  0  0  0  0  0  0  0  0
    1.8030   19.6970   -0.2550 O   0  0  0  0  0  0  0  0  0  0  0  0
    0.4070   18.3150   -1.7050 C   0  0  0  0  0  0  0  0  0  0  0  0
    0.1160   18.0150   -3.1960 C   0  0  0  0  0  0  0  0  0  0  0  0
   -0.7920   19.1550   -1.1900 C   0  0  0  0  0  0  0  0  0  0  0  0
    2.0960   14.8480   -0.4510 C   0  0  1  0  0  0  0  0  0  0  0  0
    2.7460   15.1330    0.9380 C   0  0  0  0  0  0  0  0  0  0  0  0
    3.1100   13.9340   -1.2360 C   0  0  0  0  0  0  0  0  0  0  0  0
    2.5190   13.0100   -2.3170 C   0  0  0  0  0  0  0  0  0  0  0  0
    1.3220   12.2240   -1.7720 C   0  0  2  0  0  0  0  0  0  0  0  0
    1.8390   11.3080   -0.6110 C   0  0  0  0  0  0  0  0  0  0  0  0
    0.4997    8.9403   -1.4304 H   0  0  0  0  0  0  0  0  0  0  0  0
   -0.6140    8.8779   -2.8384 H   0  0  0  0  0  0  0  0  0  0  0  0
    0.8897    7.8953   -2.8384 H   0  0  0  0  0  0  0  0  0  0  0  0
    1.1361    9.8740   -4.2659 H   0  0  0  0  0  0  0  0  0  0  0  0
    2.8148   10.6109   -1.8792 H   0  0  0  0  0  0  0  0  0  0  0  0
    2.9916    8.9648   -2.6556 H   0  0  0  0  0  0  0  0  0  0  0  0
    3.6475    9.8961   -4.7239 H   0  0  0  0  0  0  0  0  0  0  0  0
    3.1831   11.5663   -4.1934 H   0  0  0  0  0  0  0  0  0  0  0  0
    4.7602   10.3124   -2.4280 H   0  0  0  0  0  0  0  0  0  0  0  0
    5.6993    9.5884   -5.9076 H   0  0  0  0  0  0  0  0  0  0  0  0
    5.4612   11.3475   -6.1825 H   0  0  0  0  0  0  0  0  0  0  0  0
    7.1185   10.6547   -6.1825 H   0  0  0  0  0  0  0  0  0  0  0  0
    7.4563   10.6027   -2.5347 H   0  0  0  0  0  0  0  0  0  0  0  0
    7.9316    9.6000   -3.9473 H   0  0  0  0  0  0  0  0  0  0  0  0
    8.2620   11.3656   -3.9473 H   0  0  0  0  0  0  0  0  0  0  0  0
    0.5267   11.8249   -3.7674 H   0  0  0  0  0  0  0  0  0  0  0  0
   -1.6316   11.2466   -2.8458 H   0  0  0  0  0  0  0  0  0  0  0  0
   -0.9123   10.1532   -1.6446 H   0  0  0  0  0  0  0  0  0  0  0  0
   -1.9241   12.7728   -1.1119 H   0  0  0  0  0  0  0  0  0  0  0  0
   -0.8886   11.8708   -0.0084 H   0  0  0  0  0  0  0  0  0  0  0  0
   -0.8703   14.9992   -2.1071 H   0  0  0  0  0  0  0  0  0  0  0  0
    0.5024   14.4756   -3.1405 H   0  0  0  0  0  0  0  0  0  0  0  0
   -1.0302   13.5387   -3.1405 H   0  0  0  0  0  0  0  0  0  0  0  0
    0.9195   13.3605    0.6109 H   0  0  0  0  0  0  0  0  0  0  0  0
   -1.3083   14.6243    0.3252 H   0  0  0  0  0  0  0  0  0  0  0  0
   -0.0157   15.2233    1.4911 H   0  0  0  0  0  0  0  0  0  0  0  0
   -1.2297   17.0655    0.0509 H   0  0  0  0  0  0  0  0  0  0  0  0
    1.8337   15.8664   -2.2902 H   0  0  0  0  0  0  0  0  0  0  0  0
    3.1807   17.4694   -0.0294 H   0  0  0  0  0  0  0  0  0  0  0  0
    4.0063   16.6398   -1.4226 H   0  0  0  0  0  0  0  0  0  0  0  0
    3.8323   19.0848   -1.7587 H   0  0  0  0  0  0  0  0  0  0  0  0
    2.9202   18.1350   -2.9964 H   0  0  0  0  0  0  0  0  0  0  0  0
    1.5789   20.0046   -2.3168 H   0  0  0  0  0  0  0  0  0  0  0  0
    2.0840   18.9620    0.3170 H   0  0  0  0  0  0  0  0  0  0  0  0
   -0.6482   17.2272   -3.2691 H   0  0  0  0  0  0  0  0  0  0  0  0
   -0.2499   18.9277   -3.6890 H   0  0  0  0  0  0  0  0  0  0  0  0
    1.0394   17.6770   -3.6890 H   0  0  0  0  0  0  0  0  0  0  0  0
   -0.7934   19.1560   -0.0900 H   0  0  0  0  0  0  0  0  0  0  0  0
   -0.7009   20.1878   -1.5575 H   0  0  0  0  0  0  0  0  0  0  0  0
   -1.7316   18.7166   -1.5575 H   0  0  0  0  0  0  0  0  0  0  0  0
    2.0530   14.8291    1.7364 H   0  0  0  0  0  0  0  0  0  0  0  0
    3.6823   14.5629    1.0286 H   0  0  0  0  0  0  0  0  0  0  0  0
    2.9610   16.2080    1.0286 H   0  0  0  0  0  0  0  0  0  0  0  0
    3.8419   14.5932   -1.7256 H   0  0  0  0  0  0  0  0  0  0  0  0
    3.5329   13.2573   -0.4789 H   0  0  0  0  0  0  0  0  0  0  0  0
    2.1901   13.6200   -3.1712 H   0  0  0  0  0  0  0  0  0  0  0  0
    3.2946   12.2955   -2.6300 H   0  0  0  0  0  0  0  0  0  0  0  0
    1.5822   11.7629    0.3570 H   0  0  0  0  0  0  0  0  0  0  0  0
    1.3667   10.3175   -0.6874 H   0  0  0  0  0  0  0  0  0  0  0  0
    2.9311   11.2004   -0.6874 H   0  0  0  0  0  0  0  0  0  0  0  0
  1  2  1  0
  2  3  1  0
  3  4  1  0
  4  5  1  0
  5  6  1  0
  6  7  1  0
  7  8  1  0
  7  9  1  0
  2 10  1  0
 10 11  1  0
 11 12  1  0
 12 13  1  0
 13 14  1  6
 13 15  1  0
 15 16  1  0
 16 17  1  0
 17 18  2  0
 18 19  1  0
 19 20  1  0
 20 21  1  0
 21 22  1  0
 22 23  1  0
 22 24  1  0
 24 25  1  0
 24 26  1  0
 19 27  1  0
 27 28  1  1
 27 29  1  0
 29 30  1  0
 30 31  1  0
 31 32  1  1
  7  5  1  0
 31 10  1  0
 31 13  1  0
 27 15  1  0
 24 18  1  0
  1 33  1  0
  1 34  1  0
  1 35  1  0
  2 36  1  6
  3 37  1  0
  3 38  1  0
  4 39  1  0
  4 40  1  0
  5 41  1  1
  8 42  1  0
  8 43  1  0
  8 44  1  0
  9 45  1  0
  9 46  1  0
  9 47  1  0
 10 48  1  6
 11 49  1  0
 11 50  1  0
 12 51  1  0
 12 52  1  0
 14 53  1  0
 14 54  1  0
 14 55  1  0
 15 56  1  1
 16 57  1  0
 16 58  1  0
 17 59  1  0
 19 60  1  6
 20 61  1  0
 20 62  1  0
 21 63  1  0
 21 64  1  0
 22 65  1  6
 23 66  1  0
 25 67  1  0
 25 68  1  0
 25 69  1  0
 26 70  1  0
 26 71  1  0
 26 72  1  0
 28 73  1  0
 28 74  1  0
 28 75  1  0
 29 76  1  0
 29 77  1  0
 30 78  1  0
 30 79  1  0
 32 80  1  0
 32 81  1  0
 32 82  1  0
M  END
>  <meeko>  (10) 
{"is_sidechain": [false], "intermolecular_energy": 2.731, "internal_energy": -0.839}

$$$$
EPH_relaxed_0001_pdb2pqr_Repair_381_r2_0001_out
     RDKit          3D

 82 86  0  0  0  0  0  0  0  0999 V2000
   -4.1180    7.1890   -3.3260 C   0  0  0  0  0  0  0  0  0  0  0  0
   -4.0820    7.2890   -1.7990 C   0  0  2  0  0  0  0  0  0  0  0  0
   -5.4810    7.1200   -1.1730 C   0  0  0  0  0  0  0  0  0  0  0  0
   -6.6290    7.3620   -2.1570 C   0  0  0  0  0  0  0  0  0  0  0  0
   -7.8840    7.7800   -1.4530 C   0  0  2  0  0  0  0  0  0  0  0  0
   -8.8660    8.3970   -2.2960 O   0  0  0  0  0  0  0  0  0  0  0  0
   -8.2980    9.2280   -1.2700 C   0  0  0  0  0  0  0  0  0  0  0  0
   -7.4590   10.3510   -1.7920 C   0  0  0  0  0  0  0  0  0  0  0  0
   -9.2550    9.5650   -0.1690 C   0  0  0  0  0  0  0  0  0  0  0  0
   -3.4820    8.6250   -1.3800 C   0  0  1  0  0  0  0  0  0  0  0  0
   -4.0780    9.1570   -0.0490 C   0  0  0  0  0  0  0  0  0  0  0  0
   -2.9310    9.8880    0.6950 C   0  0  0  0  0  0  0  0  0  0  0  0
   -1.8150   10.0430   -0.3650 C   0  0  1  0  0  0  0  0  0  0  0  0
   -2.2320   11.2880   -1.2080 C   0  0  0  0  0  0  0  0  0  0  0  0
   -0.3570   10.1780    0.1820 C   0  0  2  0  0  0  0  0  0  0  0  0
   -0.0990   11.4190    1.0540 C   0  0  0  0  0  0  0  0  0  0  0  0
    0.3650   12.6310    0.3170 C   0  0  0  0  0  0  0  0  0  0  0  0
    0.8390   12.6470   -0.9430 C   0  0  0  0  0  0  0  0  0  0  0  0
    1.0380   11.3420   -1.7260 C   0  0  1  0  0  0  0  0  0  0  0  0
    2.4300   11.3560   -2.4100 C   0  0  0  0  0  0  0  0  0  0  0  0
    2.6450   12.5940   -3.2740 C   0  0  0  0  0  0  0  0  0  0  0  0
    2.4970   13.8690   -2.4480 C   0  0  2  0  0  0  0  0  0  0  0  0
    3.5680   13.9310   -1.5010 O   0  0  0  0  0  0  0  0  0  0  0  0
    1.1360   13.9620   -1.7040 C   0  0  0  0  0  0  0  0  0  0  0  0
   -0.0020   14.1980   -2.7280 C   0  0  0  0  0  0  0  0  0  0  0  0
    1.1720   15.2220   -0.7980 C   0  0  0  0  0  0  0  0  0  0  0  0
    0.7670   10.0010   -0.9180 C   0  0  1  0  0  0  0  0  0  0  0  0
    2.0610    9.5620   -0.1660 C   0  0  0  0  0  0  0  0  0  0  0  0
    0.4320    8.8470   -1.9350 C   0  0  0  0  0  0  0  0  0  0  0  0
   -1.0440    8.6890   -2.3450 C   0  0  0  0  0  0  0  0  0  0  0  0
   -1.9560    8.6680   -1.1140 C   0  0  2  0  0  0  0  0  0  0  0  0
   -1.5750    7.4120   -0.2580 C   0  0  0  0  0  0  0  0  0  0  0  0
   -4.4771    6.1916   -3.6198 H   0  0  0  0  0  0  0  0  0  0  0  0
   -4.7965    7.9560   -3.7278 H   0  0  0  0  0  0  0  0  0  0  0  0
   -3.1064    7.3475   -3.7278 H   0  0  0  0  0  0  0  0  0  0  0  0
   -3.4529    6.4664   -1.4281 H   0  0  0  0  0  0  0  0  0  0  0  0
   -5.5664    6.0941   -0.7853 H   0  0  0  0  0  0  0  0  0  0  0  0
   -5.5721    7.8772   -0.3803 H   0  0  0  0  0  0  0  0  0  0  0  0
   -6.3342    8.1544   -2.8607 H   0  0  0  0  0  0  0  0  0  0  0  0
   -6.8309    6.4193   -2.6867 H   0  0  0  0  0  0  0  0  0  0  0  0
   -7.7930    6.9437   -0.7443 H   0  0  0  0  0  0  0  0  0  0  0  0
   -7.0367   10.9162   -0.9481 H   0  0  0  0  0  0  0  0  0  0  0  0
   -6.6421    9.9438   -2.4059 H   0  0  0  0  0  0  0  0  0  0  0  0
   -8.0812   11.0189   -2.4059 H   0  0  0  0  0  0  0  0  0  0  0  0
   -8.7700    9.3942    0.8034 H   0  0  0  0  0  0  0  0  0  0  0  0
   -9.5507   10.6213   -0.2508 H   0  0  0  0  0  0  0  0  0  0  0  0
  -10.1474    8.9270   -0.2508 H   0  0  0  0  0  0  0  0  0  0  0  0
   -3.7263    9.2231   -2.2702 H   0  0  0  0  0  0  0  0  0  0  0  0
   -4.9015    9.8564   -0.2557 H   0  0  0  0  0  0  0  0  0  0  0  0
   -4.4817    8.3342    0.5594 H   0  0  0  0  0  0  0  0  0  0  0  0
   -3.2659   10.8727    1.0531 H   0  0  0  0  0  0  0  0  0  0  0  0
   -2.5898    9.3344    1.5822 H   0  0  0  0  0  0  0  0  0  0  0  0
   -2.5079   12.1119   -0.5334 H   0  0  0  0  0  0  0  0  0  0  0  0
   -1.3894   11.6002   -1.8425 H   0  0  0  0  0  0  0  0  0  0  0  0
   -3.0927   11.0297   -1.8425 H   0  0  0  0  0  0  0  0  0  0  0  0
   -0.2792    9.3153    0.8601 H   0  0  0  0  0  0  0  0  0  0  0  0
   -1.0369   11.6731    1.5695 H   0  0  0  0  0  0  0  0  0  0  0  0
    0.7192   11.1463    1.7367 H   0  0  0  0  0  0  0  0  0  0  0  0
    0.3155   13.5929    0.8484 H   0  0  0  0  0  0  0  0  0  0  0  0
    0.2475   11.3218   -2.4906 H   0  0  0  0  0  0  0  0  0  0  0  0
    3.2060   11.3308   -1.6308 H   0  0  0  0  0  0  0  0  0  0  0  0
    2.4876   10.4760   -3.0675 H   0  0  0  0  0  0  0  0  0  0  0  0
    3.6561   12.5603   -3.7058 H   0  0  0  0  0  0  0  0  0  0  0  0
    1.8863   12.6020   -4.0705 H   0  0  0  0  0  0  0  0  0  0  0  0
    2.5324   14.7197   -3.1445 H   0  0  0  0  0  0  0  0  0  0  0  0
    3.7150   14.8670   -1.2840 H   0  0  0  0  0  0  0  0  0  0  0  0
   -0.9427   14.3931   -2.1923 H   0  0  0  0  0  0  0  0  0  0  0  0
    0.2467   15.0637   -3.3595 H   0  0  0  0  0  0  0  0  0  0  0  0
   -0.1181   13.3048   -3.3595 H   0  0  0  0  0  0  0  0  0  0  0  0
    1.1632   14.9146    0.2581 H   0  0  0  0  0  0  0  0  0  0  0  0
    2.0869   15.7965   -1.0051 H   0  0  0  0  0  0  0  0  0  0  0  0
    0.2914   15.8478   -1.0051 H   0  0  0  0  0  0  0  0  0  0  0  0
    1.8917    9.6194    0.9194 H   0  0  0  0  0  0  0  0  0  0  0  0
    2.3134    8.5279   -0.4435 H   0  0  0  0  0  0  0  0  0  0  0  0
    2.8905   10.2290   -0.4435 H   0  0  0  0  0  0  0  0  0  0  0  0
    1.0137    9.0309   -2.8503 H   0  0  0  0  0  0  0  0  0  0  0  0
    0.6851    7.9158   -1.4070 H   0  0  0  0  0  0  0  0  0  0  0  0
   -1.3304    9.5323   -2.9906 H   0  0  0  0  0  0  0  0  0  0  0  0
   -1.1586    7.7362   -2.8826 H   0  0  0  0  0  0  0  0  0  0  0  0
   -1.6503    7.6602    0.8110 H   0  0  0  0  0  0  0  0  0  0  0  0
   -2.2631    6.5863   -0.4920 H   0  0  0  0  0  0  0  0  0  0  0  0
   -0.5441    7.1077   -0.4920 H   0  0  0  0  0  0  0  0  0  0  0  0
  1  2  1  0
  2  3  1  0
  3  4  1  0
  4  5  1  0
  5  6  1  0
  6  7  1  0
  7  8  1  0
  7  9  1  0
  2 10  1  0
 10 11  1  0
 11 12  1  0
 12 13  1  0
 13 14  1  6
 13 15  1  0
 15 16  1  0
 16 17  1  0
 17 18  2  0
 18 19  1  0
 19 20  1  0
 20 21  1  0
 21 22  1  0
 22 23  1  0
 22 24  1  0
 24 25  1  0
 24 26  1  0
 19 27  1  0
 27 28  1  1
 27 29  1  0
 29 30  1  0
 30 31  1  0
 31 32  1  1
  7  5  1  0
 31 10  1  0
 31 13  1  0
 27 15  1  0
 24 18  1  0
  1 33  1  0
  1 34  1  0
  1 35  1  0
  2 36  1  1
  3 37  1  0
  3 38  1  0
  4 39  1  0
  4 40  1  0
  5 41  1  1
  8 42  1  0
  8 43  1  0
  8 44  1  0
  9 45  1  0
  9 46  1  0
  9 47  1  0
 10 48  1  6
 11 49  1  0
 11 50  1  0
 12 51  1  0
 12 52  1  0
 14 53  1  0
 14 54  1  0
 14 55  1  0
 15 56  1  1
 16 57  1  0
 16 58  1  0
 17 59  1  0
 19 60  1  6
 20 61  1  0
 20 62  1  0
 21 63  1  0
 21 64  1  0
 22 65  1  6
 23 66  1  0
 25 67  1  0
 25 68  1  0
 25 69  1  0
 26 70  1  0
 26 71  1  0
 26 72  1  0
 28 73  1  0
 28 74  1  0
 28 75  1  0
 29 76  1  0
 29 77  1  0
 30 78  1  0
 30 79  1  0
 32 80  1  0
 32 81  1  0
 32 82  1  0
M  END
>  <meeko>  (11) 
{"is_sidechain": [false], "intermolecular_energy": 2.731, "internal_energy": -0.839}

$$$$
EPH_relaxed_0001_pdb2pqr_Repair_381_r2_0001_out
     RDKit          3D

 82 86  0  0  0  0  0  0  0  0999 V2000
   -1.0630   16.4390   -5.8860 C   0  0  0  0  0  0  0  0  0  0  0  0
    0.0770   15.6920   -6.5830 C   0  0  2  0  0  0  0  0  0  0  0  0
   -0.2570   15.3630   -8.0520 C   0  0  0  0  0  0  0  0  0  0  0  0
    0.3340   16.3570   -9.0550 C   0  0  0  0  0  0  0  0  0  0  0  0
    1.7600   16.0340   -9.3810 C   0  0  2  0  0  0  0  0  0  0  0  0
    2.2670   16.6780  -10.5580 O   0  0  0  0  0  0  0  0  0  0  0  0
    2.1800   15.2450  -10.6070 C   0  0  0  0  0  0  0  0  0  0  0  0
    1.1730   14.7290  -11.5860 C   0  0  0  0  0  0  0  0  0  0  0  0
    3.5110   14.5600  -10.5960 C   0  0  0  0  0  0  0  0  0  0  0  0
    0.4000   14.4110   -5.8230 C   0  0  1  0  0  0  0  0  0  0  0  0
    1.4800   13.5520   -6.5330 C   0  0  0  0  0  0  0  0  0  0  0  0
    2.3230   12.8820   -5.4170 C   0  0  0  0  0  0  0  0  0  0  0  0
    1.5060   13.1070   -4.1230 C   0  0  1  0  0  0  0  0  0  0  0  0
    0.4130   11.9920   -4.1400 C   0  0  0  0  0  0  0  0  0  0  0  0
    2.3150   13.1010   -2.7850 C   0  0  2  0  0  0  0  0  0  0  0  0
    3.0200   11.7740   -2.4540 C   0  0  0  0  0  0  0  0  0  0  0  0
    2.2160   10.8100   -1.6450 C   0  0  0  0  0  0  0  0  0  0  0  0
    1.0950   11.1060   -0.9630 C   0  0  0  0  0  0  0  0  0  0  0  0
    0.5800   12.5490   -0.8810 C   0  0  1  0  0  0  0  0  0  0  0  0
    0.2050   12.8820    0.5870 C   0  0  0  0  0  0  0  0  0  0  0  0
   -0.7770   11.8780    1.1820 C   0  0  0  0  0  0  0  0  0  0  0  0
   -0.2060   10.4630    1.1360 C   0  0  2  0  0  0  0  0  0  0  0  0
    0.9210   10.3920    2.0160 O   0  0  0  0  0  0  0  0  0  0  0  0
    0.2180   10.0200   -0.2920 C   0  0  0  0  0  0  0  0  0  0  0  0
   -1.0430    9.8060   -1.1660 C   0  0  0  0  0  0  0  0  0  0  0  0
    0.9070    8.6330   -0.1770 C   0  0  0  0  0  0  0  0  0  0  0  0
    1.5120   13.6550   -1.5390 C   0  0  1  0  0  0  0  0  0  0  0  0
    2.5730   14.1410   -0.5050 C   0  0  0  0  0  0  0  0  0  0  0  0
    0.6370   14.9130   -1.9030 C   0  0  0  0  0  0  0  0  0  0  0  0
   -0.0390   14.9130   -3.2870 C   0  0  0  0  0  0  0  0  0  0  0  0
    0.9650   14.5590   -4.3880 C   0  0  2  0  0  0  0  0  0  0  0  0
    2.0640   15.6750   -4.4090 C   0  0  0  0  0  0  0  0  0  0  0  0
   -0.9411   16.3591   -4.7957 H   0  0  0  0  0  0  0  0  0  0  0  0
   -1.0413   17.4986   -6.1807 H   0  0  0  0  0  0  0  0  0  0  0  0
   -2.0258   15.9961   -6.1807 H   0  0  0  0  0  0  0  0  0  0  0  0
    0.9548   16.3549   -6.5845 H   0  0  0  0  0  0  0  0  0  0  0  0
    0.1369   14.3620   -8.2819 H   0  0  0  0  0  0  0  0  0  0  0  0
   -1.3511   15.4169   -8.1527 H   0  0  0  0  0  0  0  0  0  0  0  0
   -0.2594   16.3246   -9.9807 H   0  0  0  0  0  0  0  0  0  0  0  0
    0.3044   17.3591   -8.6024 H   0  0  0  0  0  0  0  0  0  0  0  0
    2.0032   15.9246   -8.3138 H   0  0  0  0  0  0  0  0  0  0  0  0
    0.3223   14.2931  -11.0416 H   0  0  0  0  0  0  0  0  0  0  0  0
    0.8186   15.5566  -12.2181 H   0  0  0  0  0  0  0  0  0  0  0  0
    1.6378   13.9580  -12.2181 H   0  0  0  0  0  0  0  0  0  0  0  0
    3.8302   14.3957   -9.5562 H   0  0  0  0  0  0  0  0  0  0  0  0
    3.4294   13.5919  -11.1118 H   0  0  0  0  0  0  0  0  0  0  0  0
    4.2514   15.1891  -11.1118 H   0  0  0  0  0  0  0  0  0  0  0  0
   -0.6023   13.9592   -5.7876 H   0  0  0  0  0  0  0  0  0  0  0  0
    1.0021   12.7844   -7.1594 H   0  0  0  0  0  0  0  0  0  0  0  0
    2.1112   14.1720   -7.1867 H   0  0  0  0  0  0  0  0  0  0  0  0
    2.4469   11.8073   -5.6161 H   0  0  0  0  0  0  0  0  0  0  0  0
    3.3365   13.3042   -5.3493 H   0  0  0  0  0  0  0  0  0  0  0  0
    0.1484   11.7221   -3.1070 H   0  0  0  0  0  0  0  0  0  0  0  0
   -0.4811   12.3629   -4.6625 H   0  0  0  0  0  0  0  0  0  0  0  0
    0.8017   11.1055   -4.6625 H   0  0  0  0  0  0  0  0  0  0  0  0
    3.1189   13.8224   -2.9932 H   0  0  0  0  0  0  0  0  0  0  0  0
    3.2849   11.2839   -3.4025 H   0  0  0  0  0  0  0  0  0  0  0  0
    3.8913   12.0376   -1.8364 H   0  0  0  0  0  0  0  0  0  0  0  0
    2.5706    9.7696   -1.6033 H   0  0  0  0  0  0  0  0  0  0  0  0
   -0.3191   12.5883   -1.5136 H   0  0  0  0  0  0  0  0  0  0  0  0
    1.1222   12.8805    1.1943 H   0  0  0  0  0  0  0  0  0  0  0  0
   -0.2820   13.8683    0.5917 H   0  0  0  0  0  0  0  0  0  0  0  0
   -0.9805   12.1502    2.2282 H   0  0  0  0  0  0  0  0  0  0  0  0
   -1.7044   11.9016    0.5909 H   0  0  0  0  0  0  0  0  0  0  0  0
   -1.0030    9.7749    1.4544 H   0  0  0  0  0  0  0  0  0  0  0  0
    1.1830   11.3030    2.2320 H   0  0  0  0  0  0  0  0  0  0  0  0
   -1.9183    9.6574   -0.5166 H   0  0  0  0  0  0  0  0  0  0  0  0
   -1.2033   10.6898   -1.8010 H   0  0  0  0  0  0  0  0  0  0  0  0
   -0.9028    8.9188   -1.8010 H   0  0  0  0  0  0  0  0  0  0  0  0
    1.0355    8.3743    0.8844 H   0  0  0  0  0  0  0  0  0  0  0  0
    0.2824    7.8716   -0.6670 H   0  0  0  0  0  0  0  0  0  0  0  0
    1.8911    8.6707   -0.6670 H   0  0  0  0  0  0  0  0  0  0  0  0
    2.1972   13.9689    0.5144 H   0  0  0  0  0  0  0  0  0  0  0  0
    3.5092   13.5819   -0.6500 H   0  0  0  0  0  0  0  0  0  0  0  0
    2.7611   15.2151   -0.6500 H   0  0  0  0  0  0  0  0  0  0  0  0
   -0.1561   14.9969   -1.1455 H   0  0  0  0  0  0  0  0  0  0  0  0
    1.3426   15.7565   -1.9278 H   0  0  0  0  0  0  0  0  0  0  0  0
   -0.8523   14.1724   -3.2901 H   0  0  0  0  0  0  0  0  0  0  0  0
   -0.4345   15.9204   -3.4839 H   0  0  0  0  0  0  0  0  0  0  0  0
    2.3310   15.9461   -3.3769 H   0  0  0  0  0  0  0  0  0  0  0  0
    2.9563   15.3011   -4.9324 H   0  0  0  0  0  0  0  0  0  0  0  0
    1.6764   16.5615   -4.9324 H   0  0  0  0  0  0  0  0  0  0  0  0
  1  2  1  0
  2  3  1  0
  3  4  1  0
  4  5  1  0
  5  6  1  0
  6  7  1  0
  7  8  1  0
  7  9  1  0
  2 10  1  0
 10 11  1  0
 11 12  1  0
 12 13  1  0
 13 14  1  1
 13 15  1  0
 15 16  1  0
 16 17  1  0
 17 18  2  0
 18 19  1  0
 19 20  1  0
 20 21  1  0
 21 22  1  0
 22 23  1  0
 22 24  1  0
 24 25  1  0
 24 26  1  0
 19 27  1  0
 27 28  1  1
 27 29  1  0
 29 30  1  0
 30 31  1  0
 31 32  1  6
  7  5  1  0
 31 10  1  0
 31 13  1  0
 27 15  1  0
 24 18  1  0
  1 33  1  0
  1 34  1  0
  1 35  1  0
  2 36  1  6
  3 37  1  0
  3 38  1  0
  4 39  1  0
  4 40  1  0
  5 41  1  1
  8 42  1  0
  8 43  1  0
  8 44  1  0
  9 45  1  0
  9 46  1  0
  9 47  1  0
 10 48  1  1
 11 49  1  0
 11 50  1  0
 12 51  1  0
 12 52  1  0
 14 53  1  0
 14 54  1  0
 14 55  1  0
 15 56  1  6
 16 57  1  0
 16 58  1  0
 17 59  1  0
 19 60  1  6
 20 61  1  0
 20 62  1  0
 21 63  1  0
 21 64  1  0
 22 65  1  1
 23 66  1  0
 25 67  1  0
 25 68  1  0
 25 69  1  0
 26 70  1  0
 26 71  1  0
 26 72  1  0
 28 73  1  0
 28 74  1  0
 28 75  1  0
 29 76  1  0
 29 77  1  0
 30 78  1  0
 30 79  1  0
 32 80  1  0
 32 81  1  0
 32 82  1  0
M  END
>  <meeko>  (12) 
{"is_sidechain": [false], "intermolecular_energy": 2.731, "internal_energy": -0.839}

$$$$
EPH_relaxed_0001_pdb2pqr_Repair_381_r2_0001_out
     RDKit          3D

 82 86  0  0  0  0  0  0  0  0999 V2000
    3.3380   18.4490   -1.1040 C   0  0  0  0  0  0  0  0  0  0  0  0
    2.9040   17.4010   -2.1320 C   0  0  2  0  0  0  0  0  0  0  0  0
    1.5340   17.7310   -2.7570 C   0  0  0  0  0  0  0  0  0  0  0  0
    0.9690   19.0850   -2.3200 C   0  0  0  0  0  0  0  0  0  0  0  0
   -0.4180   18.9540   -1.7660 C   0  0  2  0  0  0  0  0  0  0  0  0
   -1.1250   20.1930   -1.6240 O   0  0  0  0  0  0  0  0  0  0  0  0
   -0.8290   19.4890   -0.4070 C   0  0  0  0  0  0  0  0  0  0  0  0
    0.1460   20.1940    0.4830 C   0  0  0  0  0  0  0  0  0  0  0  0
   -2.0350   18.9010    0.2570 C   0  0  0  0  0  0  0  0  0  0  0  0
    2.8620   16.0230   -1.4830 C   0  0  1  0  0  0  0  0  0  0  0  0
    3.3600   16.0390   -0.0130 C   0  0  0  0  0  0  0  0  0  0  0  0
    2.5140   14.9930    0.7580 C   0  0  0  0  0  0  0  0  0  0  0  0
    1.7960   14.1820   -0.3470 C   0  0  1  0  0  0  0  0  0  0  0  0
    2.8580   13.1480   -0.8370 C   0  0  0  0  0  0  0  0  0  0  0  0
    0.4590   13.4850    0.0660 C   0  0  2  0  0  0  0  0  0  0  0  0
    0.5920   12.4180    1.1670 C   0  0  0  0  0  0  0  0  0  0  0  0
    0.8400   11.0280    0.6820 C   0  0  0  0  0  0  0  0  0  0  0  0
    0.6690   10.5990   -0.5820 C   0  0  0  0  0  0  0  0  0  0  0  0
    0.0900   11.5270   -1.6580 C   0  0  1  0  0  0  0  0  0  0  0  0
   -1.0040   10.7720   -2.4580 C   0  0  0  0  0  0  0  0  0  0  0  0
   -0.5010    9.4530   -3.0350 C   0  0  0  0  0  0  0  0  0  0  0  0
    0.0140    8.5350   -1.9300 C   0  0  2  0  0  0  0  0  0  0  0  0
   -1.0890    8.1410   -1.1070 O   0  0  0  0  0  0  0  0  0  0  0  0
    1.1140    9.1910   -1.0500 C   0  0  0  0  0  0  0  0  0  0  0  0
    2.4170    9.3420   -1.8730 C   0  0  0  0  0  0  0  0  0  0  0  0
    1.4440    8.2140    0.1110 C   0  0  0  0  0  0  0  0  0  0  0  0
   -0.3980   12.9530   -1.1530 C   0  0  1  0  0  0  0  0  0  0  0  0
   -1.8730   12.8660   -0.6560 C   0  0  0  0  0  0  0  0  0  0  0  0
   -0.3970   13.9560   -2.3670 C   0  0  0  0  0  0  0  0  0  0  0  0
    0.9200   14.7030   -2.6510 C   0  0  0  0  0  0  0  0  0  0  0  0
    1.4800   15.3310   -1.3710 C   0  0  2  0  0  0  0  0  0  0  0  0
    0.4440   16.3920   -0.8660 C   0  0  0  0  0  0  0  0  0  0  0  0
    3.1755   18.0566   -0.0893 H   0  0  0  0  0  0  0  0  0  0  0  0
    4.4050   18.6781   -1.2420 H   0  0  0  0  0  0  0  0  0  0  0  0
    2.7454   19.3654   -1.2420 H   0  0  0  0  0  0  0  0  0  0  0  0
    3.6463   17.4077   -2.9438 H   0  0  0  0  0  0  0  0  0  0  0  0
    1.6439   17.7374   -3.8515 H   0  0  0  0  0  0  0  0  0  0  0  0
    0.8286   16.9612   -2.4108 H   0  0  0  0  0  0  0  0  0  0  0  0
    1.6235   19.5113   -1.5455 H   0  0  0  0  0  0  0  0  0  0  0  0
    0.9253   19.7396   -3.2029 H   0  0  0  0  0  0  0  0  0  0  0  0
   -0.5397   17.9682   -2.2386 H   0  0  0  0  0  0  0  0  0  0  0  0
   -0.1149   20.0053    1.5348 H   0  0  0  0  0  0  0  0  0  0  0  0
    1.1610   19.8196    0.2842 H   0  0  0  0  0  0  0  0  0  0  0  0
    0.1085   21.2752    0.2842 H   0  0  0  0  0  0  0  0  0  0  0  0
   -1.9169   18.9586    1.3491 H   0  0  0  0  0  0  0  0  0  0  0  0
   -2.9307   19.4635   -0.0451 H   0  0  0  0  0  0  0  0  0  0  0  0
   -2.1435   17.8489   -0.0451 H   0  0  0  0  0  0  0  0  0  0  0  0
    3.5041   15.4699   -2.1842 H   0  0  0  0  0  0  0  0  0  0  0  0
    4.4256   15.7693    0.0288 H   0  0  0  0  0  0  0  0  0  0  0  0
    3.2499   17.0398    0.4302 H   0  0  0  0  0  0  0  0  0  0  0  0
    3.1606   14.3392    1.3617 H   0  0  0  0  0  0  0  0  0  0  0  0
    1.8068   15.4620    1.4580 H   0  0  0  0  0  0  0  0  0  0  0  0
    3.3407   12.6781    0.0326 H   0  0  0  0  0  0  0  0  0  0  0  0
    2.3643   12.3752   -1.4444 H   0  0  0  0  0  0  0  0  0  0  0  0
    3.6174   13.6622   -1.4444 H   0  0  0  0  0  0  0  0  0  0  0  0
   -0.1078   14.3121    0.5183 H   0  0  0  0  0  0  0  0  0  0  0  0
    1.4302   12.7051    1.8189 H   0  0  0  0  0  0  0  0  0  0  0  0
   -0.3789   12.3912    1.6834 H   0  0  0  0  0  0  0  0  0  0  0  0
    1.1922   10.2924    1.4201 H   0  0  0  0  0  0  0  0  0  0  0  0
    0.9282   11.7836   -2.3225 H   0  0  0  0  0  0  0  0  0  0  0  0
   -1.8506   10.5635   -1.7873 H   0  0  0  0  0  0  0  0  0  0  0  0
   -1.3034   11.4125   -3.3007 H   0  0  0  0  0  0  0  0  0  0  0  0
   -1.3265    8.9530   -3.5628 H   0  0  0  0  0  0  0  0  0  0  0  0
    0.3261    9.6659   -3.7283 H   0  0  0  0  0  0  0  0  0  0  0  0
    0.4794    7.6644   -2.4152 H   0  0  0  0  0  0  0  0  0  0  0  0
   -1.0950    7.1700   -1.0680 H   0  0  0  0  0  0  0  0  0  0  0  0
    3.2730    9.4412   -1.1894 H   0  0  0  0  0  0  0  0  0  0  0  0
    2.5552    8.4539   -2.5071 H   0  0  0  0  0  0  0  0  0  0  0  0
    2.3484   10.2382   -2.5071 H   0  0  0  0  0  0  0  0  0  0  0  0
    1.2738    8.7179    1.0739 H   0  0  0  0  0  0  0  0  0  0  0  0
    0.7951    7.3286    0.0408 H   0  0  0  0  0  0  0  0  0  0  0  0
    2.4969    7.9034    0.0408 H   0  0  0  0  0  0  0  0  0  0  0  0
   -1.8899   12.8650    0.4439 H   0  0  0  0  0  0  0  0  0  0  0  0
   -2.4378   13.7324   -1.0306 H   0  0  0  0  0  0  0  0  0  0  0  0
   -2.3321   11.9392   -1.0306 H   0  0  0  0  0  0  0  0  0  0  0  0
   -0.6569   13.3849   -3.2705 H   0  0  0  0  0  0  0  0  0  0  0  0
   -1.1186   14.7397   -2.0929 H   0  0  0  0  0  0  0  0  0  0  0  0
    1.6564   13.9932   -3.0558 H   0  0  0  0  0  0  0  0  0  0  0  0
    0.7194   15.5048   -3.3769 H   0  0  0  0  0  0  0  0  0  0  0  0
    0.4351   16.4011    0.2339 H   0  0  0  0  0  0  0  0  0  0  0  0
    0.7273   17.3874   -1.2387 H   0  0  0  0  0  0  0  0  0  0  0  0
   -0.5579   16.1325   -1.2387 H   0  0  0  0  0  0  0  0  0  0  0  0
  1  2  1  0
  2  3  1  0
  3  4  1  0
  4  5  1  0
  5  6  1  0
  6  7  1  0
  7  8  1  0
  7  9  1  0
  2 10  1  0
 10 11  1  0
 11 12  1  0
 12 13  1  0
 13 14  1  6
 13 15  1  0
 15 16  1  0
 16 17  1  0
 17 18  2  0
 18 19  1  0
 19 20  1  0
 20 21  1  0
 21 22  1  0
 22 23  1  0
 22 24  1  0
 24 25  1  0
 24 26  1  0
 19 27  1  0
 27 28  1  1
 27 29  1  0
 29 30  1  0
 30 31  1  0
 31 32  1  1
  7  5  1  0
 31 10  1  0
 31 13  1  0
 27 15  1  0
 24 18  1  0
  1 33  1  0
  1 34  1  0
  1 35  1  0
  2 36  1  6
  3 37  1  0
  3 38  1  0
  4 39  1  0
  4 40  1  0
  5 41  1  6
  8 42  1  0
  8 43  1  0
  8 44  1  0
  9 45  1  0
  9 46  1  0
  9 47  1  0
 10 48  1  6
 11 49  1  0
 11 50  1  0
 12 51  1  0
 12 52  1  0
 14 53  1  0
 14 54  1  0
 14 55  1  0
 15 56  1  1
 16 57  1  0
 16 58  1  0
 17 59  1  0
 19 60  1  6
 20 61  1  0
 20 62  1  0
 21 63  1  0
 21 64  1  0
 22 65  1  6
 23 66  1  0
 25 67  1  0
 25 68  1  0
 25 69  1  0
 26 70  1  0
 26 71  1  0
 26 72  1  0
 28 73  1  0
 28 74  1  0
 28 75  1  0
 29 76  1  0
 29 77  1  0
 30 78  1  0
 30 79  1  0
 32 80  1  0
 32 81  1  0
 32 82  1  0
M  END
>  <meeko>  (13) 
{"is_sidechain": [false], "intermolecular_energy": 2.731, "internal_energy": -0.839}

$$$$
EPH_relaxed_0001_pdb2pqr_Repair_381_r2_0001_out
     RDKit          3D

 82 86  0  0  0  0  0  0  0  0999 V2000
  -13.8450   11.5640   -1.1100 C   0  0  0  0  0  0  0  0  0  0  0  0
  -13.5140   10.5100   -2.1710 C   0  0  2  0  0  0  0  0  0  0  0  0
  -14.1570    9.1450   -1.8530 C   0  0  0  0  0  0  0  0  0  0  0  0
  -15.1990    9.2010   -0.7330 C   0  0  0  0  0  0  0  0  0  0  0  0
  -14.9760    8.1260    0.2870 C   0  0  2  0  0  0  0  0  0  0  0  0
  -13.7770    7.3610    0.0980 O   0  0  0  0  0  0  0  0  0  0  0  0
  -15.0150    6.6440   -0.0380 C   0  0  0  0  0  0  0  0  0  0  0  0
  -15.2860    6.1570   -1.4270 C   0  0  0  0  0  0  0  0  0  0  0  0
  -15.2750    5.6750    1.0720 C   0  0  0  0  0  0  0  0  0  0  0  0
  -12.0030   10.3580   -2.2980 C   0  0  1  0  0  0  0  0  0  0  0  0
  -11.2500   11.7030   -2.1220 C   0  0  0  0  0  0  0  0  0  0  0  0
   -9.9140   11.3770   -1.4070 C   0  0  0  0  0  0  0  0  0  0  0  0
   -9.7900    9.8380   -1.4920 C   0  0  1  0  0  0  0  0  0  0  0  0
   -9.2370    9.5590   -2.9250 C   0  0  0  0  0  0  0  0  0  0  0  0
   -8.9160    9.1520   -0.3920 C   0  0  2  0  0  0  0  0  0  0  0  0
   -7.4330    9.5600   -0.3890 C   0  0  0  0  0  0  0  0  0  0  0  0
   -6.5370    8.7130   -1.2320 C   0  0  0  0  0  0  0  0  0  0  0  0
   -6.8490    7.5040   -1.7330 C   0  0  0  0  0  0  0  0  0  0  0  0
   -8.1800    6.8250   -1.3850 C   0  0  1  0  0  0  0  0  0  0  0  0
   -7.9230    5.3430   -1.0050 C   0  0  0  0  0  0  0  0  0  0  0  0
   -7.1490    4.5900   -2.0830 C   0  0  0  0  0  0  0  0  0  0  0  0
   -5.8060    5.2610   -2.3600 C   0  0  2  0  0  0  0  0  0  0  0  0
   -4.9780    5.1320   -1.2000 O   0  0  0  0  0  0  0  0  0  0  0  0
   -5.9390    6.7620   -2.7430 C   0  0  0  0  0  0  0  0  0  0  0  0
   -6.5720    6.8860   -4.1510 C   0  0  0  0  0  0  0  0  0  0  0  0
   -4.5080    7.3530   -2.8570 C   0  0  0  0  0  0  0  0  0  0  0  0
   -9.0840    7.5800   -0.3170 C   0  0  1  0  0  0  0  0  0  0  0  0
   -8.6700    7.1570    1.1250 C   0  0  0  0  0  0  0  0  0  0  0  0
  -10.5810    7.1290   -0.5000 C   0  0  0  0  0  0  0  0  0  0  0  0
  -11.4270    7.9220   -1.5150 C   0  0  0  0  0  0  0  0  0  0  0  0
  -11.2940    9.4300   -1.2800 C   0  0  2  0  0  0  0  0  0  0  0  0
  -11.8630    9.7440    0.1450 C   0  0  0  0  0  0  0  0  0  0  0  0
  -13.7090   11.1309   -0.1080 H   0  0  0  0  0  0  0  0  0  0  0  0
  -13.1750   12.4281   -1.2300 H   0  0  0  0  0  0  0  0  0  0  0  0
  -14.8887   11.8899   -1.2300 H   0  0  0  0  0  0  0  0  0  0  0  0
  -13.9339   10.8577   -3.1264 H   0  0  0  0  0  0  0  0  0  0  0  0
  -14.6466    8.7711   -2.7643 H   0  0  0  0  0  0  0  0  0  0  0  0
  -13.3497    8.4823   -1.5079 H   0  0  0  0  0  0  0  0  0  0  0  0
  -15.1369   10.1810   -0.2372 H   0  0  0  0  0  0  0  0  0  0  0  0
  -16.1919    9.0475   -1.1809 H   0  0  0  0  0  0  0  0  0  0  0  0
  -15.4757    8.7248    1.0628 H   0  0  0  0  0  0  0  0  0  0  0  0
  -15.8204    5.1966   -1.3811 H   0  0  0  0  0  0  0  0  0  0  0  0
  -15.9032    6.8949   -1.9604 H   0  0  0  0  0  0  0  0  0  0  0  0
  -14.3336    6.0215   -1.9604 H   0  0  0  0  0  0  0  0  0  0  0  0
  -15.1393    6.1806    2.0394 H   0  0  0  0  0  0  0  0  0  0  0  0
  -16.3059    5.2987    0.9963 H   0  0  0  0  0  0  0  0  0  0  0  0
  -14.5709    4.8332    0.9963 H   0  0  0  0  0  0  0  0  0  0  0  0
  -11.9457    9.9236   -3.3069 H   0  0  0  0  0  0  0  0  0  0  0  0
  -11.0530   12.1582   -3.1038 H   0  0  0  0  0  0  0  0  0  0  0  0
  -11.8478   12.4167   -1.5361 H   0  0  0  0  0  0  0  0  0  0  0  0
   -9.0708   11.8632   -1.9195 H   0  0  0  0  0  0  0  0  0  0  0  0
   -9.8979   11.7396   -0.3686 H   0  0  0  0  0  0  0  0  0  0  0  0
   -8.2572    9.0647   -2.8501 H   0  0  0  0  0  0  0  0  0  0  0  0
   -9.9366    8.9060   -3.4673 H   0  0  0  0  0  0  0  0  0  0  0  0
   -9.1275   10.5097   -3.4673 H   0  0  0  0  0  0  0  0  0  0  0  0
   -9.3403    9.5623    0.5362 H   0  0  0  0  0  0  0  0  0  0  0  0
   -7.3645   10.5954   -0.7541 H   0  0  0  0  0  0  0  0  0  0  0  0
   -7.0847    9.4344    0.6468 H   0  0  0  0  0  0  0  0  0  0  0  0
   -5.5379    9.1112   -1.4626 H   0  0  0  0  0  0  0  0  0  0  0  0
   -8.7939    6.8750   -2.2964 H   0  0  0  0  0  0  0  0  0  0  0  0
   -7.3447    5.3137   -0.0698 H   0  0  0  0  0  0  0  0  0  0  0  0
   -8.9009    4.8524   -0.8909 H   0  0  0  0  0  0  0  0  0  0  0  0
   -6.9729    3.5581   -1.7452 H   0  0  0  0  0  0  0  0  0  0  0  0
   -7.7419    4.5957   -3.0095 H   0  0  0  0  0  0  0  0  0  0  0  0
   -5.3565    4.7545   -3.2269 H   0  0  0  0  0  0  0  0  0  0  0  0
   -4.0760    5.3920   -1.4520 H   0  0  0  0  0  0  0  0  0  0  0  0
   -7.6471    7.0966   -4.0524 H   0  0  0  0  0  0  0  0  0  0  0  0
   -6.0866    7.7061   -4.7003 H   0  0  0  0  0  0  0  0  0  0  0  0
   -6.4319    5.9433   -4.7003 H   0  0  0  0  0  0  0  0  0  0  0  0
   -4.0996    7.5217   -1.8496 H   0  0  0  0  0  0  0  0  0  0  0  0
   -3.8624    6.6479   -3.4011 H   0  0  0  0  0  0  0  0  0  0  0  0
   -4.5481    8.3082   -3.4011 H   0  0  0  0  0  0  0  0  0  0  0  0
   -9.2437    7.7432    1.8580 H   0  0  0  0  0  0  0  0  0  0  0  0
   -8.8790    6.0864    1.2673 H   0  0  0  0  0  0  0  0  0  0  0  0
   -7.5952    7.3429    1.2673 H   0  0  0  0  0  0  0  0  0  0  0  0
  -10.5746    6.0772   -0.8220 H   0  0  0  0  0  0  0  0  0  0  0  0
  -11.0571    7.3100    0.4749 H   0  0  0  0  0  0  0  0  0  0  0  0
  -11.0838    7.6847   -2.5328 H   0  0  0  0  0  0  0  0  0  0  0  0
  -12.4825    7.6391   -1.3889 H   0  0  0  0  0  0  0  0  0  0  0  0
  -11.1701    9.3616    0.9089 H   0  0  0  0  0  0  0  0  0  0  0  0
  -11.9753   10.8318    0.2634 H   0  0  0  0  0  0  0  0  0  0  0  0
  -12.8432    9.2591    0.2634 H   0  0  0  0  0  0  0  0  0  0  0  0
  1  2  1  0
  2  3  1  0
  3  4  1  0
  4  5  1  0
  5  6  1  0
  6  7  1  0
  7  8  1  0
  7  9  1  0
  2 10  1  0
 10 11  1  0
 11 12  1  0
 12 13  1  0
 13 14  1  6
 13 15  1  0
 15 16  1  0
 16 17  1  0
 17 18  2  0
 18 19  1  0
 19 20  1  0
 20 21  1  0
 21 22  1  0
 22 23  1  0
 22 24  1  0
 24 25  1  0
 24 26  1  0
 19 27  1  0
 27 28  1  1
 27 29  1  0
 29 30  1  0
 30 31  1  0
 31 32  1  1
  7  5  1  0
 31 10  1  0
 31 13  1  0
 27 15  1  0
 24 18  1  0
  1 33  1  0
  1 34  1  0
  1 35  1  0
  2 36  1  6
  3 37  1  0
  3 38  1  0
  4 39  1  0
  4 40  1  0
  5 41  1  1
  8 42  1  0
  8 43  1  0
  8 44  1  0
  9 45  1  0
  9 46  1  0
  9 47  1  0
 10 48  1  6
 11 49  1  0
 11 50  1  0
 12 51  1  0
 12 52  1  0
 14 53  1  0
 14 54  1  0
 14 55  1  0
 15 56  1  1
 16 57  1  0
 16 58  1  0
 17 59  1  0
 19 60  1  6
 20 61  1  0
 20 62  1  0
 21 63  1  0
 21 64  1  0
 22 65  1  6
 23 66  1  0
 25 67  1  0
 25 68  1  0
 25 69  1  0
 26 70  1  0
 26 71  1  0
 26 72  1  0
 28 73  1  0
 28 74  1  0
 28 75  1  0
 29 76  1  0
 29 77  1  0
 30 78  1  0
 30 79  1  0
 32 80  1  0
 32 81  1  0
 32 82  1  0
M  END
>  <meeko>  (14) 
{"is_sidechain": [false], "intermolecular_energy": 2.731, "internal_energy": -0.839}

$$$$
EPH_relaxed_0001_pdb2pqr_Repair_381_r2_0001_out
     RDKit          3D

 82 86  0  0  0  0  0  0  0  0999 V2000
   -2.3490    7.8160   -2.1990 C   0  0  0  0  0  0  0  0  0  0  0  0
   -2.2770    8.4080   -0.7890 C   0  0  2  0  0  0  0  0  0  0  0  0
   -3.6440    8.3810   -0.0770 C   0  0  0  0  0  0  0  0  0  0  0  0
   -4.8290    8.6480   -1.0100 C   0  0  0  0  0  0  0  0  0  0  0  0
   -5.9190    7.6350   -0.8250 C   0  0  2  0  0  0  0  0  0  0  0  0
   -5.4740    6.2720   -0.8140 O   0  0  0  0  0  0  0  0  0  0  0  0
   -6.3350    6.6490   -1.9010 C   0  0  0  0  0  0  0  0  0  0  0  0
   -5.6690    6.6290   -3.2410 C   0  0  0  0  0  0  0  0  0  0  0  0
   -7.7020    6.0430   -1.8250 C   0  0  0  0  0  0  0  0  0  0  0  0
   -1.7500    9.8360   -0.8510 C   0  0  1  0  0  0  0  0  0  0  0  0
   -1.3320   10.3800    0.5420 C   0  0  0  0  0  0  0  0  0  0  0  0
   -0.1080   11.3030    0.3130 C   0  0  0  0  0  0  0  0  0  0  0  0
   -0.0670   11.5240   -1.2170 C   0  0  1  0  0  0  0  0  0  0  0  0
   -1.1200   12.6430   -1.4900 C   0  0  0  0  0  0  0  0  0  0  0  0
    1.3280   11.8830   -1.8260 C   0  0  2  0  0  0  0  0  0  0  0  0
    1.9370   13.2050   -1.3280 C   0  0  0  0  0  0  0  0  0  0  0  0
    1.5870   14.4120   -2.1350 C   0  0  0  0  0  0  0  0  0  0  0  0
    1.0540   14.3990   -3.3700 C   0  0  0  0  0  0  0  0  0  0  0  0
    0.8400   13.0790   -4.1220 C   0  0  1  0  0  0  0  0  0  0  0  0
    1.3560   13.2230   -5.5780 C   0  0  0  0  0  0  0  0  0  0  0  0
    0.7380   14.4140   -6.3030 C   0  0  0  0  0  0  0  0  0  0  0  0
    1.0230   15.7150   -5.5560 C   0  0  2  0  0  0  0  0  0  0  0  0
    2.4280   15.9800   -5.6120 O   0  0  0  0  0  0  0  0  0  0  0  0
    0.5540   15.6850   -4.0740 C   0  0  0  0  0  0  0  0  0  0  0  0
   -0.9930   15.7000   -4.0170 C   0  0  0  0  0  0  0  0  0  0  0  0
    1.0270   17.0000   -3.3980 C   0  0  0  0  0  0  0  0  0  0  0  0
    1.3940   11.7740   -3.4040 C   0  0  1  0  0  0  0  0  0  0  0  0
    2.8940   11.5600   -3.7730 C   0  0  0  0  0  0  0  0  0  0  0  0
    0.6180   10.5180   -3.9500 C   0  0  0  0  0  0  0  0  0  0  0  0
   -0.6920   10.1430   -3.2300 C   0  0  0  0  0  0  0  0  0  0  0  0
   -0.4890   10.0930   -1.7130 C   0  0  2  0  0  0  0  0  0  0  0  0
    0.5500    8.9600   -1.4070 C   0  0  0  0  0  0  0  0  0  0  0  0
   -2.4816    6.7260   -2.1327 H   0  0  0  0  0  0  0  0  0  0  0  0
   -3.2002    8.2567   -2.7387 H   0  0  0  0  0  0  0  0  0  0  0  0
   -1.4170    8.0399   -2.7387 H   0  0  0  0  0  0  0  0  0  0  0  0
   -1.5875    7.7827   -0.2028 H   0  0  0  0  0  0  0  0  0  0  0  0
   -3.7782    7.3894    0.3799 H   0  0  0  0  0  0  0  0  0  0  0  0
   -3.6339    9.1889    0.6695 H   0  0  0  0  0  0  0  0  0  0  0  0
   -5.2324    9.6489   -0.7966 H   0  0  0  0  0  0  0  0  0  0  0  0
   -4.4706    8.5808   -2.0478 H   0  0  0  0  0  0  0  0  0  0  0  0
   -6.4958    8.3340   -0.2016 H   0  0  0  0  0  0  0  0  0  0  0  0
   -4.5776    6.5962   -3.1076 H   0  0  0  0  0  0  0  0  0  0  0  0
   -5.9969    5.7403   -3.8002 H   0  0  0  0  0  0  0  0  0  0  0  0
   -5.9430    7.5358   -3.8002 H   0  0  0  0  0  0  0  0  0  0  0  0
   -7.9886    5.9159   -0.7706 H   0  0  0  0  0  0  0  0  0  0  0  0
   -8.4248    6.7050   -2.3243 H   0  0  0  0  0  0  0  0  0  0  0  0
   -7.6968    5.0628   -2.3243 H   0  0  0  0  0  0  0  0  0  0  0  0
   -2.6214   10.3337   -1.3016 H   0  0  0  0  0  0  0  0  0  0  0  0
   -2.1588   10.9513    0.9892 H   0  0  0  0  0  0  0  0  0  0  0  0
   -1.0833    9.5575    1.2287 H   0  0  0  0  0  0  0  0  0  0  0  0
   -0.2389   12.2595    0.8402 H   0  0  0  0  0  0  0  0  0  0  0  0
    0.8243   10.8623    0.6960 H   0  0  0  0  0  0  0  0  0  0  0  0
   -1.4917   13.0380   -0.5330 H   0  0  0  0  0  0  0  0  0  0  0  0
   -0.6512   13.4554   -2.0647 H   0  0  0  0  0  0  0  0  0  0  0  0
   -1.9593   12.2243   -2.0647 H   0  0  0  0  0  0  0  0  0  0  0  0
    1.9725   11.0875   -1.4238 H   0  0  0  0  0  0  0  0  0  0  0  0
    1.5898   13.3725   -0.2977 H   0  0  0  0  0  0  0  0  0  0  0  0
    3.0276   13.0885   -1.4116 H   0  0  0  0  0  0  0  0  0  0  0  0
    1.7816   15.3949   -1.6810 H   0  0  0  0  0  0  0  0  0  0  0  0
   -0.2460   12.9043   -4.1266 H   0  0  0  0  0  0  0  0  0  0  0  0
    2.4480   13.3530   -5.5537 H   0  0  0  0  0  0  0  0  0  0  0  0
    1.0684   12.3133   -6.1254 H   0  0  0  0  0  0  0  0  0  0  0  0
    1.1633   14.4795   -7.3154 H   0  0  0  0  0  0  0  0  0  0  0  0
   -0.3512   14.2686   -6.3522 H   0  0  0  0  0  0  0  0  0  0  0  0
    0.4490   16.5128   -6.0501 H   0  0  0  0  0  0  0  0  0  0  0  0
    2.6930   15.9690   -6.5470 H   0  0  0  0  0  0  0  0  0  0  0  0
   -1.3212   15.7032   -2.9671 H   0  0  0  0  0  0  0  0  0  0  0  0
   -1.3698   16.6018   -4.5217 H   0  0  0  0  0  0  0  0  0  0  0  0
   -1.3872   14.8056   -4.5217 H   0  0  0  0  0  0  0  0  0  0  0  0
    0.9859   16.8856   -2.3047 H   0  0  0  0  0  0  0  0  0  0  0  0
    2.0603   17.2191   -3.7051 H   0  0  0  0  0  0  0  0  0  0  0  0
    0.3700   17.8271   -3.7051 H   0  0  0  0  0  0  0  0  0  0  0  0
    3.4896   11.4750   -2.8521 H   0  0  0  0  0  0  0  0  0  0  0  0
    2.9984   10.6379   -4.3636 H   0  0  0  0  0  0  0  0  0  0  0  0
    3.2521   12.4162   -4.3636 H   0  0  0  0  0  0  0  0  0  0  0  0
    0.3743   10.7103   -5.0053 H   0  0  0  0  0  0  0  0  0  0  0  0
    1.2934    9.6665   -3.7804 H   0  0  0  0  0  0  0  0  0  0  0  0
   -1.4599   10.8945   -3.4657 H   0  0  0  0  0  0  0  0  0  0  0  0
   -1.0088    9.1475   -3.5744 H   0  0  0  0  0  0  0  0  0  0  0  0
    0.6562    8.8442   -0.3183 H   0  0  0  0  0  0  0  0  0  0  0  0
    0.1995    8.0133   -1.8440 H   0  0  0  0  0  0  0  0  0  0  0  0
    1.5234    9.2274   -1.8440 H   0  0  0  0  0  0  0  0  0  0  0  0
  1  2  1  0
  2  3  1  0
  3  4  1  0
  4  5  1  0
  5  6  1  0
  6  7  1  0
  7  8  1  0
  7  9  1  0
  2 10  1  0
 10 11  1  0
 11 12  1  0
 12 13  1  0
 13 14  1  1
 13 15  1  0
 15 16  1  0
 16 17  1  0
 17 18  2  0
 18 19  1  0
 19 20  1  0
 20 21  1  0
 21 22  1  0
 22 23  1  0
 22 24  1  0
 24 25  1  0
 24 26  1  0
 19 27  1  0
 27 28  1  1
 27 29  1  0
 29 30  1  0
 30 31  1  0
 31 32  1  6
  7  5  1  0
 31 10  1  0
 31 13  1  0
 27 15  1  0
 24 18  1  0
  1 33  1  0
  1 34  1  0
  1 35  1  0
  2 36  1  1
  3 37  1  0
  3 38  1  0
  4 39  1  0
  4 40  1  0
  5 41  1  1
  8 42  1  0
  8 43  1  0
  8 44  1  0
  9 45  1  0
  9 46  1  0
  9 47  1  0
 10 48  1  6
 11 49  1  0
 11 50  1  0
 12 51  1  0
 12 52  1  0
 14 53  1  0
 14 54  1  0
 14 55  1  0
 15 56  1  1
 16 57  1  0
 16 58  1  0
 17 59  1  0
 19 60  1  6
 20 61  1  0
 20 62  1  0
 21 63  1  0
 21 64  1  0
 22 65  1  6
 23 66  1  0
 25 67  1  0
 25 68  1  0
 25 69  1  0
 26 70  1  0
 26 71  1  0
 26 72  1  0
 28 73  1  0
 28 74  1  0
 28 75  1  0
 29 76  1  0
 29 77  1  0
 30 78  1  0
 30 79  1  0
 32 80  1  0
 32 81  1  0
 32 82  1  0
M  END
>  <meeko>  (15) 
{"is_sidechain": [false], "intermolecular_energy": 2.731, "internal_energy": -0.839}

$$$$
EPH_relaxed_0001_pdb2pqr_Repair_381_r2_0001_out
     RDKit          3D

 82 86  0  0  0  0  0  0  0  0999 V2000
    0.2110   14.9350   -7.1140 C   0  0  0  0  0  0  0  0  0  0  0  0
    1.6400   14.6320   -6.6560 C   0  0  2  0  0  0  0  0  0  0  0  0
    2.5950   14.4040   -7.8450 C   0  0  0  0  0  0  0  0  0  0  0  0
    2.8470   15.6610   -8.6820 C   0  0  0  0  0  0  0  0  0  0  0  0
    2.7210   15.3850  -10.1500 C   0  0  2  0  0  0  0  0  0  0  0  0
    2.1930   16.4720  -10.9200 O   0  0  0  0  0  0  0  0  0  0  0  0
    1.3900   15.2820  -10.8700 C   0  0  0  0  0  0  0  0  0  0  0  0
    0.0940   15.4520  -10.1430 C   0  0  0  0  0  0  0  0  0  0  0  0
    1.3350   14.5370  -12.1680 C   0  0  0  0  0  0  0  0  0  0  0  0
    1.6450   13.4120   -5.7430 C   0  0  1  0  0  0  0  0  0  0  0  0
    3.0650   12.8160   -5.5500 C   0  0  0  0  0  0  0  0  0  0  0  0
    3.1330   12.2840   -4.0960 C   0  0  0  0  0  0  0  0  0  0  0  0
    1.6650   12.2870   -3.6100 C   0  0  1  0  0  0  0  0  0  0  0  0
    1.0460   10.9780   -4.1930 C   0  0  0  0  0  0  0  0  0  0  0  0
    1.4490   12.3890   -2.0650 C   0  0  2  0  0  0  0  0  0  0  0  0
    2.0200   11.2170   -1.2470 C   0  0  0  0  0  0  0  0  0  0  0  0
    1.0800   10.0800   -1.0210 C   0  0  0  0  0  0  0  0  0  0  0  0
   -0.2530   10.1180   -1.2070 C   0  0  0  0  0  0  0  0  0  0  0  0
   -0.9570   11.4240   -1.5960 C   0  0  1  0  0  0  0  0  0  0  0  0
   -2.2170   11.6160   -0.7120 C   0  0  0  0  0  0  0  0  0  0  0  0
   -3.1530   10.4120   -0.7580 C   0  0  0  0  0  0  0  0  0  0  0  0
   -2.4330    9.1430   -0.3090 C   0  0  2  0  0  0  0  0  0  0  0  0
   -2.1100    9.2630    1.0800 O   0  0  0  0  0  0  0  0  0  0  0  0
   -1.1410    8.8520   -1.1220 C   0  0  0  0  0  0  0  0  0  0  0  0
   -1.5180    8.4250   -2.5630 C   0  0  0  0  0  0  0  0  0  0  0  0
   -0.4370    7.6270   -0.4770 C   0  0  0  0  0  0  0  0  0  0  0  0
   -0.0390   12.7200   -1.6390 C   0  0  1  0  0  0  0  0  0  0  0  0
    0.0370   13.3660   -0.2220 C   0  0  0  0  0  0  0  0  0  0  0  0
   -0.7060   13.7920   -2.5810 C   0  0  0  0  0  0  0  0  0  0  0  0
   -0.3590   13.7120   -4.0790 C   0  0  0  0  0  0  0  0  0  0  0  0
    1.1550   13.6110   -4.2870 C   0  0  2  0  0  0  0  0  0  0  0  0
    1.8030   14.9240   -3.7300 C   0  0  0  0  0  0  0  0  0  0  0  0
   -0.4348   15.0719   -6.2341 H   0  0  0  0  0  0  0  0  0  0  0  0
    0.2068   15.8540   -7.7185 H   0  0  0  0  0  0  0  0  0  0  0  0
   -0.1658   14.0968   -7.7185 H   0  0  0  0  0  0  0  0  0  0  0  0
    2.0041   15.5112   -6.1042 H   0  0  0  0  0  0  0  0  0  0  0  0
    3.5594   14.0489   -7.4527 H   0  0  0  0  0  0  0  0  0  0  0  0
    2.1145   13.6683   -8.5067 H   0  0  0  0  0  0  0  0  0  0  0  0
    2.1130   16.4301   -8.3997 H   0  0  0  0  0  0  0  0  0  0  0  0
    3.8734   16.0038   -8.4847 H   0  0  0  0  0  0  0  0  0  0  0  0
    3.5996   14.7236  -10.1252 H   0  0  0  0  0  0  0  0  0  0  0  0
    0.2761   15.4281   -9.0584 H   0  0  0  0  0  0  0  0  0  0  0  0
   -0.3568   16.4170  -10.4179 H   0  0  0  0  0  0  0  0  0  0  0  0
   -0.5904   14.6359  -10.4179 H   0  0  0  0  0  0  0  0  0  0  0  0
    1.2554   13.4582  -11.9685 H   0  0  0  0  0  0  0  0  0  0  0  0
    0.4589   14.8689  -12.7445 H   0  0  0  0  0  0  0  0  0  0  0  0
    2.2503   14.7367  -12.7445 H   0  0  0  0  0  0  0  0  0  0  0  0
    0.9421   12.7684   -6.2922 H   0  0  0  0  0  0  0  0  0  0  0  0
    3.2309   11.9942   -6.2621 H   0  0  0  0  0  0  0  0  0  0  0  0
    3.8399   13.5759   -5.7291 H   0  0  0  0  0  0  0  0  0  0  0  0
    3.5471   11.2651   -4.0743 H   0  0  0  0  0  0  0  0  0  0  0  0
    3.7849   12.8981   -3.4574 H   0  0  0  0  0  0  0  0  0  0  0  0
    0.7350   10.3203   -3.3679 H   0  0  0  0  0  0  0  0  0  0  0  0
    0.1714   11.2295   -4.8110 H   0  0  0  0  0  0  0  0  0  0  0  0
    1.7953   10.4616   -4.8110 H   0  0  0  0  0  0  0  0  0  0  0  0
    2.0598   13.2643   -1.7991 H   0  0  0  0  0  0  0  0  0  0  0  0
    2.9013   10.8289   -1.7786 H   0  0  0  0  0  0  0  0  0  0  0  0
    2.2502   11.6242   -0.2514 H   0  0  0  0  0  0  0  0  0  0  0  0
    1.5129    9.1305   -0.6730 H   0  0  0  0  0  0  0  0  0  0  0  0
   -1.2537   11.3076   -2.6488 H   0  0  0  0  0  0  0  0  0  0  0  0
   -1.8970   11.7743    0.3284 H   0  0  0  0  0  0  0  0  0  0  0  0
   -2.7695   12.4835   -1.1021 H   0  0  0  0  0  0  0  0  0  0  0  0
   -4.0084   10.5955   -0.0912 H   0  0  0  0  0  0  0  0  0  0  0  0
   -3.4954   10.2732   -1.7941 H   0  0  0  0  0  0  0  0  0  0  0  0
   -3.1133    8.2972   -0.4871 H   0  0  0  0  0  0  0  0  0  0  0  0
   -1.2890    9.7790    1.1480 H   0  0  0  0  0  0  0  0  0  0  0  0
   -2.2456    7.6010   -2.5227 H   0  0  0  0  0  0  0  0  0  0  0  0
   -1.9613    9.2799   -3.0946 H   0  0  0  0  0  0  0  0  0  0  0  0
   -0.6148    8.0910   -3.0946 H   0  0  0  0  0  0  0  0  0  0  0  0
   -0.4854    7.7112    0.6187 H   0  0  0  0  0  0  0  0  0  0  0  0
   -0.9422    6.7036   -0.7964 H   0  0  0  0  0  0  0  0  0  0  0  0
    0.6152    7.5986   -0.7964 H   0  0  0  0  0  0  0  0  0  0  0  0
   -0.0553   12.5818    0.5439 H   0  0  0  0  0  0  0  0  0  0  0  0
    1.0019   13.8810   -0.1051 H   0  0  0  0  0  0  0  0  0  0  0  0
   -0.7821   14.0909   -0.1051 H   0  0  0  0  0  0  0  0  0  0  0  0
   -1.7967   13.6858   -2.4860 H   0  0  0  0  0  0  0  0  0  0  0  0
   -0.3059   14.7597   -2.2442 H   0  0  0  0  0  0  0  0  0  0  0  0
   -0.8418   12.8241   -4.5132 H   0  0  0  0  0  0  0  0  0  0  0  0
   -0.7202   14.6267   -4.5718 H   0  0  0  0  0  0  0  0  0  0  0  0
    1.7915   14.9006   -2.6303 H   0  0  0  0  0  0  0  0  0  0  0  0
    2.8417   14.9992   -4.0843 H   0  0  0  0  0  0  0  0  0  0  0  0
    1.2309   15.7941   -4.0843 H   0  0  0  0  0  0  0  0  0  0  0  0
  1  2  1  0
  2  3  1  0
  3  4  1  0
  4  5  1  0
  5  6  1  0
  6  7  1  0
  7  8  1  0
  7  9  1  0
  2 10  1  0
 10 11  1  0
 11 12  1  0
 12 13  1  0
 13 14  1  6
 13 15  1  0
 15 16  1  0
 16 17  1  0
 17 18  2  0
 18 19  1  0
 19 20  1  0
 20 21  1  0
 21 22  1  0
 22 23  1  0
 22 24  1  0
 24 25  1  0
 24 26  1  0
 19 27  1  0
 27 28  1  1
 27 29  1  0
 29 30  1  0
 30 31  1  0
 31 32  1  1
  7  5  1  0
 31 10  1  0
 31 13  1  0
 27 15  1  0
 24 18  1  0
  1 33  1  0
  1 34  1  0
  1 35  1  0
  2 36  1  1
  3 37  1  0
  3 38  1  0
  4 39  1  0
  4 40  1  0
  5 41  1  6
  8 42  1  0
  8 43  1  0
  8 44  1  0
  9 45  1  0
  9 46  1  0
  9 47  1  0
 10 48  1  6
 11 49  1  0
 11 50  1  0
 12 51  1  0
 12 52  1  0
 14 53  1  0
 14 54  1  0
 14 55  1  0
 15 56  1  1
 16 57  1  0
 16 58  1  0
 17 59  1  0
 19 60  1  6
 20 61  1  0
 20 62  1  0
 21 63  1  0
 21 64  1  0
 22 65  1  1
 23 66  1  0
 25 67  1  0
 25 68  1  0
 25 69  1  0
 26 70  1  0
 26 71  1  0
 26 72  1  0
 28 73  1  0
 28 74  1  0
 28 75  1  0
 29 76  1  0
 29 77  1  0
 30 78  1  0
 30 79  1  0
 32 80  1  0
 32 81  1  0
 32 82  1  0
M  END
>  <meeko>  (16) 
{"is_sidechain": [false], "intermolecular_energy": 2.731, "internal_energy": -0.839}

$$$$
EPH_relaxed_0001_pdb2pqr_Repair_381_r2_0001_out
     RDKit          3D

 82 86  0  0  0  0  0  0  0  0999 V2000
    0.6650   19.4320   -2.1400 C   0  0  0  0  0  0  0  0  0  0  0  0
    1.4090   18.9810   -0.8800 C   0  0  2  0  0  0  0  0  0  0  0  0
    2.9390   19.0780   -1.0420 C   0  0  0  0  0  0  0  0  0  0  0  0
    3.7040   17.9490   -0.3470 C   0  0  0  0  0  0  0  0  0  0  0  0
    4.5800   18.4690    0.7540 C   0  0  2  0  0  0  0  0  0  0  0  0
    4.2950   17.9280    2.0510 O   0  0  0  0  0  0  0  0  0  0  0  0
    4.0700   19.3380    1.8880 C   0  0  0  0  0  0  0  0  0  0  0  0
    2.6310   19.7390    1.9780 C   0  0  0  0  0  0  0  0  0  0  0  0
    5.0490   20.1940    2.6290 C   0  0  0  0  0  0  0  0  0  0  0  0
    1.0120   17.5530   -0.5250 C   0  0  1  0  0  0  0  0  0  0  0  0
   -0.3600   17.4750    0.1960 C   0  0  0  0  0  0  0  0  0  0  0  0
   -1.0380   16.1620   -0.2720 C   0  0  0  0  0  0  0  0  0  0  0  0
    0.0880   15.3720   -0.9780 C   0  0  1  0  0  0  0  0  0  0  0  0
    0.8880   14.6940    0.1780 C   0  0  0  0  0  0  0  0  0  0  0  0
   -0.3680   14.3310   -2.0530 C   0  0  2  0  0  0  0  0  0  0  0  0
   -1.2370   13.1800   -1.5190 C   0  0  0  0  0  0  0  0  0  0  0  0
   -0.4860   11.9690   -1.0710 C   0  0  0  0  0  0  0  0  0  0  0  0
    0.8000   11.6960   -1.3570 C   0  0  0  0  0  0  0  0  0  0  0  0
    1.6100   12.6070   -2.2890 C   0  0  1  0  0  0  0  0  0  0  0  0
    2.3810   11.7400   -3.3190 C   0  0  0  0  0  0  0  0  0  0  0  0
    3.2420   10.6700   -2.6560 C   0  0  0  0  0  0  0  0  0  0  0  0
    2.3930    9.7490   -1.7840 C   0  0  2  0  0  0  0  0  0  0  0  0
    1.5150    8.9970   -2.6270 O   0  0  0  0  0  0  0  0  0  0  0  0
    1.5630   10.5120   -0.7140 C   0  0  0  0  0  0  0  0  0  0  0  0
    2.5100   11.0770    0.3740 C   0  0  0  0  0  0  0  0  0  0  0  0
    0.6460    9.4840    0.0020 C   0  0  0  0  0  0  0  0  0  0  0  0
    0.8030   13.7940   -2.9720 C   0  0  1  0  0  0  0  0  0  0  0  0
    0.1400   13.2960   -4.2920 C   0  0  0  0  0  0  0  0  0  0  0  0
    1.8110   14.9310   -3.3830 C   0  0  0  0  0  0  0  0  0  0  0  0
    2.1290   15.9970   -2.3170 C   0  0  0  0  0  0  0  0  0  0  0  0
    0.8430   16.5500   -1.6940 C   0  0  2  0  0  0  0  0  0  0  0  0
    0.0280   17.2580   -2.8300 C   0  0  0  0  0  0  0  0  0  0  0  0
   -0.2430   19.9824   -1.8524 H   0  0  0  0  0  0  0  0  0  0  0  0
    1.3173   20.0869   -2.7364 H   0  0  0  0  0  0  0  0  0  0  0  0
    0.3862   18.5508   -2.7364 H   0  0  0  0  0  0  0  0  0  0  0  0
    1.1203   19.6607   -0.0647 H   0  0  0  0  0  0  0  0  0  0  0  0
    3.1771   19.0493   -2.1155 H   0  0  0  0  0  0  0  0  0  0  0  0
    3.2535   20.0192   -0.5674 H   0  0  0  0  0  0  0  0  0  0  0  0
    2.9810   17.2375    0.0785 H   0  0  0  0  0  0  0  0  0  0  0  0
    4.3459   17.4590   -1.0938 H   0  0  0  0  0  0  0  0  0  0  0  0
    5.4258   18.5832    0.0601 H   0  0  0  0  0  0  0  0  0  0  0  0
    2.3385   19.8205    3.0353 H   0  0  0  0  0  0  0  0  0  0  0  0
    2.4895   20.7108    1.4824 H   0  0  0  0  0  0  0  0  0  0  0  0
    2.0073   18.9804    1.4824 H   0  0  0  0  0  0  0  0  0  0  0  0
    4.9023   20.0657    3.7116 H   0  0  0  0  0  0  0  0  0  0  0  0
    6.0733   19.8965    2.3600 H   0  0  0  0  0  0  0  0  0  0  0  0
    4.8909   21.2488    2.3600 H   0  0  0  0  0  0  0  0  0  0  0  0
    1.8774   17.2702    0.0924 H   0  0  0  0  0  0  0  0  0  0  0  0
   -0.2144   17.4583    1.2862 H   0  0  0  0  0  0  0  0  0  0  0  0
   -0.9830   18.3487   -0.0456 H   0  0  0  0  0  0  0  0  0  0  0  0
   -1.4275   15.5980    0.5883 H   0  0  0  0  0  0  0  0  0  0  0  0
   -1.8956   16.3486   -0.9350 H   0  0  0  0  0  0  0  0  0  0  0  0
    0.4899   15.0313    1.1464 H   0  0  0  0  0  0  0  0  0  0  0  0
    0.7883   13.6012    0.1012 H   0  0  0  0  0  0  0  0  0  0  0  0
    1.9496   14.9716    0.1012 H   0  0  0  0  0  0  0  0  0  0  0  0
   -1.0294   14.9299   -2.6963 H   0  0  0  0  0  0  0  0  0  0  0  0
   -1.8137   13.5586   -0.6623 H   0  0  0  0  0  0  0  0  0  0  0  0
   -1.8637   12.8549   -2.3625 H   0  0  0  0  0  0  0  0  0  0  0  0
   -1.0306   11.2384   -0.4549 H   0  0  0  0  0  0  0  0  0  0  0  0
    2.3227   13.1439   -1.6457 H   0  0  0  0  0  0  0  0  0  0  0  0
    1.6529   11.2470   -3.9799 H   0  0  0  0  0  0  0  0  0  0  0  0
    3.0516   12.4069   -3.8807 H   0  0  0  0  0  0  0  0  0  0  0  0
    3.7368   10.0722   -3.4356 H   0  0  0  0  0  0  0  0  0  0  0  0
    3.9892   11.1659   -2.0189 H   0  0  0  0  0  0  0  0  0  0  0  0
    3.0802    9.0881   -1.2354 H   0  0  0  0  0  0  0  0  0  0  0  0
    1.9910    8.8080   -3.4540 H   0  0  0  0  0  0  0  0  0  0  0  0
    2.1086   10.8375    1.3698 H   0  0  0  0  0  0  0  0  0  0  0  0
    3.5071   10.6260    0.2624 H   0  0  0  0  0  0  0  0  0  0  0  0
    2.5867   12.1686    0.2624 H   0  0  0  0  0  0  0  0  0  0  0  0
    0.7478    9.5981    1.0913 H   0  0  0  0  0  0  0  0  0  0  0  0
   -0.4000    9.6606   -0.2890 H   0  0  0  0  0  0  0  0  0  0  0  0
    0.9405    8.4649   -0.2890 H   0  0  0  0  0  0  0  0  0  0  0  0
   -0.7181   12.6514   -4.0508 H   0  0  0  0  0  0  0  0  0  0  0  0
   -0.2043   14.1607   -4.8783 H   0  0  0  0  0  0  0  0  0  0  0  0
    0.8745   12.7244   -4.8783 H   0  0  0  0  0  0  0  0  0  0  0  0
    2.7589   14.4493   -3.6649 H   0  0  0  0  0  0  0  0  0  0  0  0
    1.3116   15.4778   -4.1964 H   0  0  0  0  0  0  0  0  0  0  0  0
    2.7454   15.5432   -1.5270 H   0  0  0  0  0  0  0  0  0  0  0  0
    2.6695   16.8249   -2.7991 H   0  0  0  0  0  0  0  0  0  0  0  0
   -0.7302   17.9167   -2.3814 H   0  0  0  0  0  0  0  0  0  0  0  0
    0.7101   17.8552   -3.4530 H   0  0  0  0  0  0  0  0  0  0  0  0
   -0.4679   16.4991   -3.4530 H   0  0  0  0  0  0  0  0  0  0  0  0
  1  2  1  0
  2  3  1  0
  3  4  1  0
  4  5  1  0
  5  6  1  0
  6  7  1  0
  7  8  1  0
  7  9  1  0
  2 10  1  0
 10 11  1  0
 11 12  1  0
 12 13  1  0
 13 14  1  1
 13 15  1  0
 15 16  1  0
 16 17  1  0
 17 18  2  0
 18 19  1  0
 19 20  1  0
 20 21  1  0
 21 22  1  0
 22 23  1  0
 22 24  1  0
 24 25  1  0
 24 26  1  0
 19 27  1  0
 27 28  1  6
 27 29  1  0
 29 30  1  0
 30 31  1  0
 31 32  1  6
  7  5  1  0
 31 10  1  0
 31 13  1  0
 27 15  1  0
 24 18  1  0
  1 33  1  0
  1 34  1  0
  1 35  1  0
  2 36  1  1
  3 37  1  0
  3 38  1  0
  4 39  1  0
  4 40  1  0
  5 41  1  6
  8 42  1  0
  8 43  1  0
  8 44  1  0
  9 45  1  0
  9 46  1  0
  9 47  1  0
 10 48  1  1
 11 49  1  0
 11 50  1  0
 12 51  1  0
 12 52  1  0
 14 53  1  0
 14 54  1  0
 14 55  1  0
 15 56  1  6
 16 57  1  0
 16 58  1  0
 17 59  1  0
 19 60  1  1
 20 61  1  0
 20 62  1  0
 21 63  1  0
 21 64  1  0
 22 65  1  1
 23 66  1  0
 25 67  1  0
 25 68  1  0
 25 69  1  0
 26 70  1  0
 26 71  1  0
 26 72  1  0
 28 73  1  0
 28 74  1  0
 28 75  1  0
 29 76  1  0
 29 77  1  0
 30 78  1  0
 30 79  1  0
 32 80  1  0
 32 81  1  0
 32 82  1  0
M  END
>  <meeko>  (17) 
{"is_sidechain": [false], "intermolecular_energy": 2.731, "internal_energy": -0.839}

$$$$
EPH_relaxed_0001_pdb2pqr_Repair_381_r2_0001_out
     RDKit          3D

 82 86  0  0  0  0  0  0  0  0999 V2000
    2.1120   10.8940   -5.1680 C   0  0  0  0  0  0  0  0  0  0  0  0
    1.4570   10.8040   -3.7870 C   0  0  2  0  0  0  0  0  0  0  0  0
    0.3060    9.7800   -3.7560 C   0  0  0  0  0  0  0  0  0  0  0  0
    0.1760    9.0390   -2.4220 C   0  0  0  0  0  0  0  0  0  0  0  0
   -1.2520    8.9440   -1.9770 C   0  0  2  0  0  0  0  0  0  0  0  0
   -1.9050   10.2060   -1.7880 O   0  0  0  0  0  0  0  0  0  0  0  0
   -1.7350    9.3980   -0.6120 C   0  0  0  0  0  0  0  0  0  0  0  0
   -0.7930    9.9810    0.3950 C   0  0  0  0  0  0  0  0  0  0  0  0
   -3.0130    8.8310   -0.0800 C   0  0  0  0  0  0  0  0  0  0  0  0
    0.9460   12.1760   -3.3630 C   0  0  1  0  0  0  0  0  0  0  0  0
   -0.5840   12.1890   -3.1030 C   0  0  0  0  0  0  0  0  0  0  0  0
   -0.8300   13.1790   -1.9350 C   0  0  0  0  0  0  0  0  0  0  0  0
    0.5050   13.9450   -1.7850 C   0  0  1  0  0  0  0  0  0  0  0  0
    0.4640   15.0450   -2.8920 C   0  0  0  0  0  0  0  0  0  0  0  0
    0.7960   14.5550   -0.3750 C   0  0  2  0  0  0  0  0  0  0  0  0
   -0.2050   15.6270    0.0910 C   0  0  0  0  0  0  0  0  0  0  0  0
    0.1450   17.0300   -0.2790 C   0  0  0  0  0  0  0  0  0  0  0  0
    1.3510   17.4490   -0.7060 C   0  0  0  0  0  0  0  0  0  0  0  0
    2.5450   16.4880   -0.7590 C   0  0  1  0  0  0  0  0  0  0  0  0
    3.7900   17.1730   -0.1360 C   0  0  0  0  0  0  0  0  0  0  0  0
    4.0970   18.5220   -0.7790 C   0  0  0  0  0  0  0  0  0  0  0  0
    2.9070   19.4700   -0.6540 C   0  0  2  0  0  0  0  0  0  0  0  0
    2.7180   19.7920    0.7280 O   0  0  0  0  0  0  0  0  0  0  0  0
    1.5930   18.8830   -1.2390 C   0  0  0  0  0  0  0  0  0  0  0  0
    1.6940   18.8160   -2.7830 C   0  0  0  0  0  0  0  0  0  0  0  0
    0.4430   19.8770   -0.9230 C   0  0  0  0  0  0  0  0  0  0  0  0
    2.2910   15.0330   -0.1720 C   0  0  1  0  0  0  0  0  0  0  0  0
    2.5550   15.0260    1.3650 C   0  0  0  0  0  0  0  0  0  0  0  0
    3.3300   14.0340   -0.8050 C   0  0  0  0  0  0  0  0  0  0  0  0
    2.9330   13.3720   -2.1380 C   0  0  0  0  0  0  0  0  0  0  0  0
    1.5230   12.7780   -2.0580 C   0  0  2  0  0  0  0  0  0  0  0  0
    1.5390   11.6530   -0.9670 C   0  0  0  0  0  0  0  0  0  0  0  0
    3.1956   11.0429   -5.0509 H   0  0  0  0  0  0  0  0  0  0  0  0
    1.9278    9.9621   -5.7226 H   0  0  0  0  0  0  0  0  0  0  0  0
    1.6832   11.7417   -5.7226 H   0  0  0  0  0  0  0  0  0  0  0  0
    2.2247   10.4587   -3.0789 H   0  0  0  0  0  0  0  0  0  0  0  0
   -0.6370   10.3117   -3.9511 H   0  0  0  0  0  0  0  0  0  0  0  0
    0.5283    9.0237   -4.5232 H   0  0  0  0  0  0  0  0  0  0  0  0
    0.5816    8.0231   -2.5376 H   0  0  0  0  0  0  0  0  0  0  0  0
    0.7354    9.6028   -1.6609 H   0  0  0  0  0  0  0  0  0  0  0  0
   -1.3873    8.0042   -2.5323 H   0  0  0  0  0  0  0  0  0  0  0  0
   -1.1555    9.7567    1.4091 H   0  0  0  0  0  0  0  0  0  0  0  0
    0.2070    9.5436    0.2579 H   0  0  0  0  0  0  0  0  0  0  0  0
   -0.7384   11.0711    0.2579 H   0  0  0  0  0  0  0  0  0  0  0  0
   -2.9891    8.8416    1.0197 H   0  0  0  0  0  0  0  0  0  0  0  0
   -3.8591    9.4382   -0.4342 H   0  0  0  0  0  0  0  0  0  0  0  0
   -3.1306    7.7963   -0.4342 H   0  0  0  0  0  0  0  0  0  0  0  0
    1.2746   12.7705   -4.2282 H   0  0  0  0  0  0  0  0  0  0  0  0
   -1.1186   12.5252   -4.0037 H   0  0  0  0  0  0  0  0  0  0  0  0
   -0.9509   11.1828   -2.8523 H   0  0  0  0  0  0  0  0  0  0  0  0
   -1.6495   13.8711   -2.1787 H   0  0  0  0  0  0  0  0  0  0  0  0
   -1.1226   12.6653   -1.0074 H   0  0  0  0  0  0  0  0  0  0  0  0
    0.4270   16.0382   -2.4207 H   0  0  0  0  0  0  0  0  0  0  0  0
    1.3656   14.9694   -3.5176 H   0  0  0  0  0  0  0  0  0  0  0  0
   -0.4295   14.9025   -3.5176 H   0  0  0  0  0  0  0  0  0  0  0  0
    0.6430   13.6934    0.2915 H   0  0  0  0  0  0  0  0  0  0  0  0
   -1.1843   15.3929   -0.3518 H   0  0  0  0  0  0  0  0  0  0  0  0
   -0.1988   15.5917    1.1904 H   0  0  0  0  0  0  0  0  0  0  0  0
   -0.6499   17.7857   -0.1957 H   0  0  0  0  0  0  0  0  0  0  0  0
    2.7250   16.2859   -1.8252 H   0  0  0  0  0  0  0  0  0  0  0  0
    3.6076   17.3273    0.9377 H   0  0  0  0  0  0  0  0  0  0  0  0
    4.6549   16.5156   -0.3087 H   0  0  0  0  0  0  0  0  0  0  0  0
    4.9679   18.9696   -0.2779 H   0  0  0  0  0  0  0  0  0  0  0  0
    4.3075   18.3620   -1.8468 H   0  0  0  0  0  0  0  0  0  0  0  0
    3.1376   20.3697   -1.2433 H   0  0  0  0  0  0  0  0  0  0  0  0
    2.6810   20.7600    0.8020 H   0  0  0  0  0  0  0  0  0  0  0  0
    2.5795   18.2286   -3.0674 H   0  0  0  0  0  0  0  0  0  0  0  0
    0.7906   18.3375   -3.1891 H   0  0  0  0  0  0  0  0  0  0  0  0
    1.7836   19.8343   -3.1891 H   0  0  0  0  0  0  0  0  0  0  0  0
    0.3311   19.9737    0.1670 H   0  0  0  0  0  0  0  0  0  0  0  0
    0.6789   20.8603   -1.3561 H   0  0  0  0  0  0  0  0  0  0  0  0
   -0.4958   19.5013   -1.3561 H   0  0  0  0  0  0  0  0  0  0  0  0
    1.5953   15.0514    1.9020 H   0  0  0  0  0  0  0  0  0  0  0  0
    3.1041   14.1130    1.6386 H   0  0  0  0  0  0  0  0  0  0  0  0
    3.1518   15.9086    1.6386 H   0  0  0  0  0  0  0  0  0  0  0  0
    4.2647   14.5888   -0.9742 H   0  0  0  0  0  0  0  0  0  0  0  0
    3.4094   13.2064   -0.0848 H   0  0  0  0  0  0  0  0  0  0  0  0
    2.9601   14.1276   -2.9369 H   0  0  0  0  0  0  0  0  0  0  0  0
    3.6437   12.5599   -2.3511 H   0  0  0  0  0  0  0  0  0  0  0  0
    1.5325   12.1117    0.0328 H   0  0  0  0  0  0  0  0  0  0  0  0
    0.6498   11.0161   -1.0840 H   0  0  0  0  0  0  0  0  0  0  0  0
    2.4459   11.0416   -1.0840 H   0  0  0  0  0  0  0  0  0  0  0  0
  1  2  1  0
  2  3  1  0
  3  4  1  0
  4  5  1  0
  5  6  1  0
  6  7  1  0
  7  8  1  0
  7  9  1  0
  2 10  1  0
 10 11  1  0
 11 12  1  0
 12 13  1  0
 13 14  1  6
 13 15  1  0
 15 16  1  0
 16 17  1  0
 17 18  2  0
 18 19  1  0
 19 20  1  0
 20 21  1  0
 21 22  1  0
 22 23  1  0
 22 24  1  0
 24 25  1  0
 24 26  1  0
 19 27  1  0
 27 28  1  1
 27 29  1  0
 29 30  1  0
 30 31  1  0
 31 32  1  1
  7  5  1  0
 31 10  1  0
 31 13  1  0
 27 15  1  0
 24 18  1  0
  1 33  1  0
  1 34  1  0
  1 35  1  0
  2 36  1  1
  3 37  1  0
  3 38  1  0
  4 39  1  0
  4 40  1  0
  5 41  1  6
  8 42  1  0
  8 43  1  0
  8 44  1  0
  9 45  1  0
  9 46  1  0
  9 47  1  0
 10 48  1  6
 11 49  1  0
 11 50  1  0
 12 51  1  0
 12 52  1  0
 14 53  1  0
 14 54  1  0
 14 55  1  0
 15 56  1  1
 16 57  1  0
 16 58  1  0
 17 59  1  0
 19 60  1  6
 20 61  1  0
 20 62  1  0
 21 63  1  0
 21 64  1  0
 22 65  1  6
 23 66  1  0
 25 67  1  0
 25 68  1  0
 25 69  1  0
 26 70  1  0
 26 71  1  0
 26 72  1  0
 28 73  1  0
 28 74  1  0
 28 75  1  0
 29 76  1  0
 29 77  1  0
 30 78  1  0
 30 79  1  0
 32 80  1  0
 32 81  1  0
 32 82  1  0
M  END
>  <meeko>  (18) 
{"is_sidechain": [false], "intermolecular_energy": 2.731, "internal_energy": -0.839}

$$$$
EPH_relaxed_0001_pdb2pqr_Repair_381_r2_0001_out
     RDKit          3D

 82 86  0  0  0  0  0  0  0  0999 V2000
   -1.9860    9.6010   -0.1830 C   0  0  0  0  0  0  0  0  0  0  0  0
   -1.5420   10.5510   -1.3000 C   0  0  2  0  0  0  0  0  0  0  0  0
   -0.6190    9.8550   -2.3210 C   0  0  0  0  0  0  0  0  0  0  0  0
    0.7740    9.5350   -1.7730 C   0  0  0  0  0  0  0  0  0  0  0  0
    1.8550   10.0610   -2.6680 C   0  0  2  0  0  0  0  0  0  0  0  0
    3.0020    9.2080   -2.7860 O   0  0  0  0  0  0  0  0  0  0  0  0
    3.2230   10.4850   -2.1680 C   0  0  0  0  0  0  0  0  0  0  0  0
    3.5830   10.4050   -0.7170 C   0  0  0  0  0  0  0  0  0  0  0  0
    4.0300   11.4290   -3.0040 C   0  0  0  0  0  0  0  0  0  0  0  0
   -0.8370   11.7630   -0.7010 C   0  0  1  0  0  0  0  0  0  0  0  0
    0.3230   11.3690    0.2510 C   0  0  0  0  0  0  0  0  0  0  0  0
    1.4270   12.4440    0.0790 C   0  0  0  0  0  0  0  0  0  0  0  0
    0.7400   13.5870   -0.7040 C   0  0  1  0  0  0  0  0  0  0  0  0
   -0.0520   14.3920    0.3730 C   0  0  0  0  0  0  0  0  0  0  0  0
    1.6810   14.5140   -1.5410 C   0  0  2  0  0  0  0  0  0  0  0  0
    2.7130   15.3070   -0.7210 C   0  0  0  0  0  0  0  0  0  0  0  0
    2.2620   16.6530   -0.2590 C   0  0  0  0  0  0  0  0  0  0  0  0
    1.1920   17.3230   -0.7260 C   0  0  0  0  0  0  0  0  0  0  0  0
    0.3640   16.7690   -1.8930 C   0  0  1  0  0  0  0  0  0  0  0  0
    0.0980   17.8990   -2.9220 C   0  0  0  0  0  0  0  0  0  0  0  0
   -0.5410   19.1300   -2.2860 C   0  0  0  0  0  0  0  0  0  0  0  0
    0.3400   19.6860   -1.1690 C   0  0  2  0  0  0  0  0  0  0  0  0
    1.5470   20.1940   -1.7440 O   0  0  0  0  0  0  0  0  0  0  0  0
    0.6830   18.6330   -0.0780 C   0  0  0  0  0  0  0  0  0  0  0  0
   -0.5860   18.3060    0.7470 C   0  0  0  0  0  0  0  0  0  0  0  0
    1.6880   19.2820    0.9110 C   0  0  0  0  0  0  0  0  0  0  0  0
    0.9230   15.4450   -2.5720 C   0  0  1  0  0  0  0  0  0  0  0  0
    1.9540   15.8110   -3.6830 C   0  0  0  0  0  0  0  0  0  0  0  0
   -0.2610   14.6990   -3.2940 C   0  0  0  0  0  0  0  0  0  0  0  0
   -1.0780   13.7070   -2.4450 C   0  0  0  0  0  0  0  0  0  0  0  0
   -0.1570   12.7470   -1.6850 C   0  0  2  0  0  0  0  0  0  0  0  0
    0.6370   11.9080   -2.7440 C   0  0  0  0  0  0  0  0  0  0  0  0
   -1.7721   10.0586    0.7942 H   0  0  0  0  0  0  0  0  0  0  0  0
   -3.0660    9.4114   -0.2706 H   0  0  0  0  0  0  0  0  0  0  0  0
   -1.4387    8.6509   -0.2706 H   0  0  0  0  0  0  0  0  0  0  0  0
   -2.4449   10.8747   -1.8386 H   0  0  0  0  0  0  0  0  0  0  0  0
   -1.0941    8.9133   -2.6332 H   0  0  0  0  0  0  0  0  0  0  0  0
   -0.4819   10.5540   -3.1592 H   0  0  0  0  0  0  0  0  0  0  0  0
    0.8799    9.9931   -0.7785 H   0  0  0  0  0  0  0  0  0  0  0  0
    0.8775    8.4414   -1.7158 H   0  0  0  0  0  0  0  0  0  0  0  0
    1.1141   10.5645   -3.3063 H   0  0  0  0  0  0  0  0  0  0  0  0
    2.6900   10.6035   -0.1062 H   0  0  0  0  0  0  0  0  0  0  0  0
    3.9669    9.3996   -0.4894 H   0  0  0  0  0  0  0  0  0  0  0  0
    4.3566   11.1531   -0.4894 H   0  0  0  0  0  0  0  0  0  0  0  0
    4.6040   12.1004   -2.3484 H   0  0  0  0  0  0  0  0  0  0  0  0
    4.7222   10.8565   -3.6389 H   0  0  0  0  0  0  0  0  0  0  0  0
    3.3568   12.0237   -3.6389 H   0  0  0  0  0  0  0  0  0  0  0  0
   -1.6924   12.2514   -0.2114 H   0  0  0  0  0  0  0  0  0  0  0  0
   -0.0306   11.3524    1.2925 H   0  0  0  0  0  0  0  0  0  0  0  0
    0.7071   10.3664    0.0119 H   0  0  0  0  0  0  0  0  0  0  0  0
    1.7778   12.8006    1.0587 H   0  0  0  0  0  0  0  0  0  0  0  0
    2.3120   12.0530   -0.4444 H   0  0  0  0  0  0  0  0  0  0  0  0
    0.2639   14.0709    1.3766 H   0  0  0  0  0  0  0  0  0  0  0  0
    0.1512   15.4662    0.2508 H   0  0  0  0  0  0  0  0  0  0  0  0
   -1.1293   14.2064    0.2508 H   0  0  0  0  0  0  0  0  0  0  0  0
    2.2617   13.7900   -2.1315 H   0  0  0  0  0  0  0  0  0  0  0  0
    2.9713   14.7117    0.1672 H   0  0  0  0  0  0  0  0  0  0  0  0
    3.5643   15.4858   -1.3943 H   0  0  0  0  0  0  0  0  0  0  0  0
    2.8546   17.1387    0.5303 H   0  0  0  0  0  0  0  0  0  0  0  0
   -0.5873   16.4300   -1.4570 H   0  0  0  0  0  0  0  0  0  0  0  0
    1.0549   18.1938   -3.3774 H   0  0  0  0  0  0  0  0  0  0  0  0
   -0.6042   17.5084   -3.6732 H   0  0  0  0  0  0  0  0  0  0  0  0
   -0.6771   19.9036   -3.0561 H   0  0  0  0  0  0  0  0  0  0  0  0
   -1.5114   18.8400   -1.8568 H   0  0  0  0  0  0  0  0  0  0  0  0
   -0.2272   20.4838   -0.6672 H   0  0  0  0  0  0  0  0  0  0  0  0
    2.2630   20.0480   -1.1020 H   0  0  0  0  0  0  0  0  0  0  0  0
   -0.3514   18.3664    1.8200 H   0  0  0  0  0  0  0  0  0  0  0  0
   -1.3781   19.0294    0.5035 H   0  0  0  0  0  0  0  0  0  0  0  0
   -0.9299   17.2899    0.5035 H   0  0  0  0  0  0  0  0  0  0  0  0
    1.3703   19.0768    1.9439 H   0  0  0  0  0  0  0  0  0  0  0  0
    2.6902   18.8600    0.7450 H   0  0  0  0  0  0  0  0  0  0  0  0
    1.7157   20.3690    0.7450 H   0  0  0  0  0  0  0  0  0  0  0  0
    2.8928   16.1443   -3.2166 H   0  0  0  0  0  0  0  0  0  0  0  0
    2.1487   14.9271   -4.3081 H   0  0  0  0  0  0  0  0  0  0  0  0
    1.5478   16.6199   -4.3081 H   0  0  0  0  0  0  0  0  0  0  0  0
   -0.9553   15.4641   -3.6716 H   0  0  0  0  0  0  0  0  0  0  0  0
    0.2173   14.0858   -4.0720 H   0  0  0  0  0  0  0  0  0  0  0  0
   -1.6873   14.2690   -1.7219 H   0  0  0  0  0  0  0  0  0  0  0  0
   -1.7213   13.1185   -3.1157 H   0  0  0  0  0  0  0  0  0  0  0  0
    1.3045   11.2027   -2.2273 H   0  0  0  0  0  0  0  0  0  0  0  0
   -0.0704   11.3489   -3.3740 H   0  0  0  0  0  0  0  0  0  0  0  0
    1.2343   12.5836   -3.3740 H   0  0  0  0  0  0  0  0  0  0  0  0
  1  2  1  0
  2  3  1  0
  3  4  1  0
  4  5  1  0
  5  6  1  0
  6  7  1  0
  7  8  1  0
  7  9  1  0
  2 10  1  0
 10 11  1  0
 11 12  1  0
 12 13  1  0
 13 14  1  1
 13 15  1  0
 15 16  1  0
 16 17  1  0
 17 18  2  0
 18 19  1  0
 19 20  1  0
 20 21  1  0
 21 22  1  0
 22 23  1  0
 22 24  1  0
 24 25  1  0
 24 26  1  0
 19 27  1  0
 27 28  1  6
 27 29  1  0
 29 30  1  0
 30 31  1  0
 31 32  1  6
  7  5  1  0
 31 10  1  0
 31 13  1  0
 27 15  1  0
 24 18  1  0
  1 33  1  0
  1 34  1  0
  1 35  1  0
  2 36  1  6
  3 37  1  0
  3 38  1  0
  4 39  1  0
  4 40  1  0
  5 41  1  6
  8 42  1  0
  8 43  1  0
  8 44  1  0
  9 45  1  0
  9 46  1  0
  9 47  1  0
 10 48  1  1
 11 49  1  0
 11 50  1  0
 12 51  1  0
 12 52  1  0
 14 53  1  0
 14 54  1  0
 14 55  1  0
 15 56  1  6
 16 57  1  0
 16 58  1  0
 17 59  1  0
 19 60  1  1
 20 61  1  0
 20 62  1  0
 21 63  1  0
 21 64  1  0
 22 65  1  1
 23 66  1  0
 25 67  1  0
 25 68  1  0
 25 69  1  0
 26 70  1  0
 26 71  1  0
 26 72  1  0
 28 73  1  0
 28 74  1  0
 28 75  1  0
 29 76  1  0
 29 77  1  0
 30 78  1  0
 30 79  1  0
 32 80  1  0
 32 81  1  0
 32 82  1  0
M  END
>  <meeko>  (19) 
{"is_sidechain": [false], "intermolecular_energy": 2.731, "internal_energy": -0.839}

$$$$
EPH_relaxed_0001_pdb2pqr_Repair_381_r2_0001_out
     RDKit          3D

 82 86  0  0  0  0  0  0  0  0999 V2000
   -0.0140   17.4140   -2.4450 C   0  0  0  0  0  0  0  0  0  0  0  0
   -0.1550   16.6060   -1.1530 C   0  0  2  0  0  0  0  0  0  0  0  0
   -0.0790   17.4990    0.1020 C   0  0  0  0  0  0  0  0  0  0  0  0
   -0.1620   18.9970   -0.2030 C   0  0  0  0  0  0  0  0  0  0  0  0
    0.9530   19.7580    0.4490 C   0  0  2  0  0  0  0  0  0  0  0  0
    1.9840   20.1950   -0.4460 O   0  0  0  0  0  0  0  0  0  0  0  0
    2.3740   19.2370    0.5510 C   0  0  0  0  0  0  0  0  0  0  0  0
    2.7570   17.9010   -0.0050 C   0  0  0  0  0  0  0  0  0  0  0  0
    3.2680   19.8000    1.6110 C   0  0  0  0  0  0  0  0  0  0  0  0
    0.9230   15.5300   -1.0930 C   0  0  1  0  0  0  0  0  0  0  0  0
    1.0340   14.8720    0.3090 C   0  0  0  0  0  0  0  0  0  0  0  0
    1.3940   13.3830    0.0770 C   0  0  0  0  0  0  0  0  0  0  0  0
    1.8030   13.3080   -1.4130 C   0  0  1  0  0  0  0  0  0  0  0  0
    3.2830   13.8020   -1.4480 C   0  0  0  0  0  0  0  0  0  0  0  0
    1.6440   11.9140   -2.1040 C   0  0  2  0  0  0  0  0  0  0  0  0
    2.5090   10.7890   -1.5110 C   0  0  0  0  0  0  0  0  0  0  0  0
    3.8580   10.6280   -2.1300 C   0  0  0  0  0  0  0  0  0  0  0  0
    4.2490   11.1610   -3.3030 C   0  0  0  0  0  0  0  0  0  0  0  0
    3.2610   11.9370   -4.1830 C   0  0  1  0  0  0  0  0  0  0  0  0
    3.3930   11.4610   -5.6540 C   0  0  0  0  0  0  0  0  0  0  0  0
    4.8270   11.5470   -6.1700 C   0  0  0  0  0  0  0  0  0  0  0  0
    5.7690   10.7160   -5.3030 C   0  0  2  0  0  0  0  0  0  0  0  0
    5.4390    9.3320   -5.4590 O   0  0  0  0  0  0  0  0  0  0  0  0
    5.7150   11.0990   -3.7970 C   0  0  0  0  0  0  0  0  0  0  0  0
    6.3560   12.4940   -3.5920 C   0  0  0  0  0  0  0  0  0  0  0  0
    6.6040   10.0940   -3.0160 C   0  0  0  0  0  0  0  0  0  0  0  0
    1.7530   11.9570   -3.6820 C   0  0  1  0  0  0  0  0  0  0  0  0
    0.9980   10.7010   -4.2150 C   0  0  0  0  0  0  0  0  0  0  0  0
    1.0230   13.2080   -4.2990 C   0  0  0  0  0  0  0  0  0  0  0  0
    1.1170   14.5270   -3.5080 C   0  0  0  0  0  0  0  0  0  0  0  0
    0.7630   14.3100   -2.0340 C   0  0  2  0  0  0  0  0  0  0  0  0
   -0.7280   13.8330   -1.9650 C   0  0  0  0  0  0  0  0  0  0  0  0
    0.1703   18.4701   -2.1987 H   0  0  0  0  0  0  0  0  0  0  0  0
    0.8293   17.0219   -3.0325 H   0  0  0  0  0  0  0  0  0  0  0  0
   -0.9402   17.3307   -3.0325 H   0  0  0  0  0  0  0  0  0  0  0  0
   -1.1495   16.1359   -1.1634 H   0  0  0  0  0  0  0  0  0  0  0  0
   -0.9130   17.2335    0.7683 H   0  0  0  0  0  0  0  0  0  0  0  0
    0.9021   17.3191    0.5658 H   0  0  0  0  0  0  0  0  0  0  0  0
   -0.1043   19.1429   -1.2918 H   0  0  0  0  0  0  0  0  0  0  0  0
   -1.1147   19.3759    0.1954 H   0  0  0  0  0  0  0  0  0  0  0  0
    0.2630   20.1712    1.1994 H   0  0  0  0  0  0  0  0  0  0  0  0
    2.9570   17.2035    0.8217 H   0  0  0  0  0  0  0  0  0  0  0  0
    1.9344   17.5114   -0.6226 H   0  0  0  0  0  0  0  0  0  0  0  0
    3.6611   18.0064   -0.6226 H   0  0  0  0  0  0  0  0  0  0  0  0
    2.8655   19.5465    2.6028 H   0  0  0  0  0  0  0  0  0  0  0  0
    4.2764   19.3737    1.5046 H   0  0  0  0  0  0  0  0  0  0  0  0
    3.3192   20.8936    1.5046 H   0  0  0  0  0  0  0  0  0  0  0  0
    1.7959   16.1271   -1.3955 H   0  0  0  0  0  0  0  0  0  0  0  0
    1.8219   15.3649    0.8974 H   0  0  0  0  0  0  0  0  0  0  0  0
    0.0903   14.9679    0.8660 H   0  0  0  0  0  0  0  0  0  0  0  0
    2.2298   13.0801    0.7248 H   0  0  0  0  0  0  0  0  0  0  0  0
    0.5572   12.7096    0.3143 H   0  0  0  0  0  0  0  0  0  0  0  0
    3.6528   13.9254   -0.4194 H   0  0  0  0  0  0  0  0  0  0  0  0
    3.9041   13.0624   -1.9746 H   0  0  0  0  0  0  0  0  0  0  0  0
    3.3353   14.7663   -1.9746 H   0  0  0  0  0  0  0  0  0  0  0  0
    0.6041   11.6486   -1.8630 H   0  0  0  0  0  0  0  0  0  0  0  0
    2.6491   10.9967   -0.4399 H   0  0  0  0  0  0  0  0  0  0  0  0
    1.9686    9.8520   -1.7111 H   0  0  0  0  0  0  0  0  0  0  0  0
    4.5948   10.0228   -1.5814 H   0  0  0  0  0  0  0  0  0  0  0  0
    3.5516   12.9951   -4.1050 H   0  0  0  0  0  0  0  0  0  0  0  0
    3.0573   10.4154   -5.7179 H   0  0  0  0  0  0  0  0  0  0  0  0
    2.7736   12.1235   -6.2764 H   0  0  0  0  0  0  0  0  0  0  0  0
    4.8613   11.1698   -7.2027 H   0  0  0  0  0  0  0  0  0  0  0  0
    5.1510   12.5976   -6.1335 H   0  0  0  0  0  0  0  0  0  0  0  0
    6.7952   10.9209   -5.6420 H   0  0  0  0  0  0  0  0  0  0  0  0
    6.1900    8.8110   -5.1290 H   0  0  0  0  0  0  0  0  0  0  0  0
    6.4504   12.6995   -2.5155 H   0  0  0  0  0  0  0  0  0  0  0  0
    7.3525   12.5116   -4.0575 H   0  0  0  0  0  0  0  0  0  0  0  0
    5.7203   13.2616   -4.0575 H   0  0  0  0  0  0  0  0  0  0  0  0
    6.4683   10.2474   -1.9352 H   0  0  0  0  0  0  0  0  0  0  0  0
    6.3141    9.0662   -3.2797 H   0  0  0  0  0  0  0  0  0  0  0  0
    7.6595   10.2563   -3.2797 H   0  0  0  0  0  0  0  0  0  0  0  0
    0.6378   10.1019   -3.3657 H   0  0  0  0  0  0  0  0  0  0  0  0
    0.1420   11.0203   -4.8276 H   0  0  0  0  0  0  0  0  0  0  0  0
    1.6816   10.0949   -4.8276 H   0  0  0  0  0  0  0  0  0  0  0  0
    1.4530   13.3862   -5.2956 H   0  0  0  0  0  0  0  0  0  0  0  0
   -0.0456   12.9472   -4.2981 H   0  0  0  0  0  0  0  0  0  0  0  0
    2.1436   14.9158   -3.5778 H   0  0  0  0  0  0  0  0  0  0  0  0
    0.4027   15.2447   -3.9377 H   0  0  0  0  0  0  0  0  0  0  0  0
   -1.0334   13.7353   -0.9128 H   0  0  0  0  0  0  0  0  0  0  0  0
   -1.3723   14.5699   -2.4669 H   0  0  0  0  0  0  0  0  0  0  0  0
   -0.8250   12.8590   -2.4669 H   0  0  0  0  0  0  0  0  0  0  0  0
  1  2  1  0
  2  3  1  0
  3  4  1  0
  4  5  1  0
  5  6  1  0
  6  7  1  0
  7  8  1  0
  7  9  1  0
  2 10  1  0
 10 11  1  0
 11 12  1  0
 12 13  1  0
 13 14  1  1
 13 15  1  0
 15 16  1  0
 16 17  1  0
 17 18  2  0
 18 19  1  0
 19 20  1  0
 20 21  1  0
 21 22  1  0
 22 23  1  0
 22 24  1  0
 24 25  1  0
 24 26  1  0
 19 27  1  0
 27 28  1  6
 27 29  1  0
 29 30  1  0
 30 31  1  0
 31 32  1  6
  7  5  1  0
 31 10  1  0
 31 13  1  0
 27 15  1  0
 24 18  1  0
  1 33  1  0
  1 34  1  0
  1 35  1  0
  2 36  1  6
  3 37  1  0
  3 38  1  0
  4 39  1  0
  4 40  1  0
  5 41  1  1
  8 42  1  0
  8 43  1  0
  8 44  1  0
  9 45  1  0
  9 46  1  0
  9 47  1  0
 10 48  1  6
 11 49  1  0
 11 50  1  0
 12 51  1  0
 12 52  1  0
 14 53  1  0
 14 54  1  0
 14 55  1  0
 15 56  1  6
 16 57  1  0
 16 58  1  0
 17 59  1  0
 19 60  1  6
 20 61  1  0
 20 62  1  0
 21 63  1  0
 21 64  1  0
 22 65  1  6
 23 66  1  0
 25 67  1  0
 25 68  1  0
 25 69  1  0
 26 70  1  0
 26 71  1  0
 26 72  1  0
 28 73  1  0
 28 74  1  0
 28 75  1  0
 29 76  1  0
 29 77  1  0
 30 78  1  0
 30 79  1  0
 32 80  1  0
 32 81  1  0
 32 82  1  0
M  END
>  <meeko>  (20) 
{"is_sidechain": [false], "intermolecular_energy": 2.731, "internal_energy": -0.839}

$$$$
