EPH_relaxed_0001_pdb2pqr_Repair_292_r2_0001_out
     RDKit          3D

 82 86  0  0  0  0  0  0  0  0999 V2000
    1.9990   19.5900   -0.4940 C   0  0  0  0  0  0  0  0  0  0  0  0
    2.4080   18.3560    0.3160 C   0  0  2  0  0  0  0  0  0  0  0  0
    3.8520   17.9120    0.0080 C   0  0  0  0  0  0  0  0  0  0  0  0
    4.8630   18.3100    1.0870 C   0  0  0  0  0  0  0  0  0  0  0  0
    4.2080   19.0570    2.2100 C   0  0  2  0  0  0  0  0  0  0  0  0
    4.9430   20.1940    2.6810 O   0  0  0  0  0  0  0  0  0  0  0  0
    4.7740   19.1170    3.6160 C   0  0  0  0  0  0  0  0  0  0  0  0
    6.0480   18.4180    3.9760 C   0  0  0  0  0  0  0  0  0  0  0  0
    3.8480   19.4410    4.7470 C   0  0  0  0  0  0  0  0  0  0  0  0
    1.4410   17.2100    0.0420 C   0  0  1  0  0  0  0  0  0  0  0  0
    0.1480   17.6790   -0.6760 C   0  0  0  0  0  0  0  0  0  0  0  0
   -0.2710   16.5360   -1.6360 C   0  0  0  0  0  0  0  0  0  0  0  0
    0.5910   15.3270   -1.2020 C   0  0  1  0  0  0  0  0  0  0  0  0
   -0.1490   14.7300    0.0350 C   0  0  0  0  0  0  0  0  0  0  0  0
    0.8580   14.2410   -2.2950 C   0  0  2  0  0  0  0  0  0  0  0  0
   -0.3970   13.5250   -2.8230 C   0  0  0  0  0  0  0  0  0  0  0  0
   -0.7820   12.2850   -2.0850 C   0  0  0  0  0  0  0  0  0  0  0  0
    0.0050   11.6100   -1.2260 C   0  0  0  0  0  0  0  0  0  0  0  0
    1.4630   12.0290   -0.9980 C   0  0  1  0  0  0  0  0  0  0  0  0
    2.3750   10.7760   -1.0470 C   0  0  0  0  0  0  0  0  0  0  0  0
    1.9230    9.6850   -0.0800 C   0  0  0  0  0  0  0  0  0  0  0  0
    0.4890    9.2540   -0.3770 C   0  0  2  0  0  0  0  0  0  0  0  0
    0.4560    8.6060   -1.6520 O   0  0  0  0  0  0  0  0  0  0  0  0
   -0.5210   10.4360   -0.3650 C   0  0  0  0  0  0  0  0  0  0  0  0
   -0.7100   10.9440    1.0860 C   0  0  0  0  0  0  0  0  0  0  0  0
   -1.9020    9.8890   -0.8160 C   0  0  0  0  0  0  0  0  0  0  0  0
    1.9970   13.2090   -1.9180 C   0  0  1  0  0  0  0  0  0  0  0  0
    2.5380   12.6330   -3.2620 C   0  0  0  0  0  0  0  0  0  0  0  0
    3.2200   13.9010   -1.2080 C   0  0  0  0  0  0  0  0  0  0  0  0
    2.8990   15.0470   -0.2300 C   0  0  0  0  0  0  0  0  0  0  0  0
    1.9410   16.0590   -0.8670 C   0  0  2  0  0  0  0  0  0  0  0  0
    2.6680   16.6930   -2.1020 C   0  0  0  0  0  0  0  0  0  0  0  0
    1.7285   20.4060    0.1923 H   0  0  0  0  0  0  0  0  0  0  0  0
    2.8399   19.9077   -1.1280 H   0  0  0  0  0  0  0  0  0  0  0  0
    1.1348   19.3425   -1.1280 H   0  0  0  0  0  0  0  0  0  0  0  0
    2.3668   18.6304    1.3804 H   0  0  0  0  0  0  0  0  0  0  0  0
    3.8644   16.8166   -0.0921 H   0  0  0  0  0  0  0  0  0  0  0  0
    4.1539   18.4222   -0.9186 H   0  0  0  0  0  0  0  0  0  0  0  0
    5.3320   17.4000    1.4895 H   0  0  0  0  0  0  0  0  0  0  0  0
    5.6140   18.9695    0.6276 H   0  0  0  0  0  0  0  0  0  0  0  0
    3.2083   18.8042    1.8272 H   0  0  0  0  0  0  0  0  0  0  0  0
    6.1414   18.3668    5.0708 H   0  0  0  0  0  0  0  0  0  0  0  0
    6.0373   17.3994    3.5608 H   0  0  0  0  0  0  0  0  0  0  0  0
    6.9014   18.9742    3.5608 H   0  0  0  0  0  0  0  0  0  0  0  0
    4.3607   19.2616    5.7035 H   0  0  0  0  0  0  0  0  0  0  0  0
    3.5481   20.4975    4.6842 H   0  0  0  0  0  0  0  0  0  0  0  0
    2.9549   18.8020    4.6842 H   0  0  0  0  0  0  0  0  0  0  0  0
    1.2950   16.8426    1.0685 H   0  0  0  0  0  0  0  0  0  0  0  0
   -0.6475   17.8658    0.0604 H   0  0  0  0  0  0  0  0  0  0  0  0
    0.3203   18.6148   -1.2279 H   0  0  0  0  0  0  0  0  0  0  0  0
   -1.3417   16.3091   -1.5259 H   0  0  0  0  0  0  0  0  0  0  0  0
   -0.1169   16.8007   -2.6925 H   0  0  0  0  0  0  0  0  0  0  0  0
    0.3171   15.1060    0.9577 H   0  0  0  0  0  0  0  0  0  0  0  0
   -1.2068   15.0306    0.0097 H   0  0  0  0  0  0  0  0  0  0  0  0
   -0.0790   13.6325    0.0097 H   0  0  0  0  0  0  0  0  0  0  0  0
    1.2360   14.8403   -3.1364 H   0  0  0  0  0  0  0  0  0  0  0  0
   -1.2396   14.2298   -2.7662 H   0  0  0  0  0  0  0  0  0  0  0  0
   -0.1571   13.2068   -3.8483 H   0  0  0  0  0  0  0  0  0  0  0  0
   -1.7939   11.8898   -2.2578 H   0  0  0  0  0  0  0  0  0  0  0  0
    1.4975   12.4767    0.0062 H   0  0  0  0  0  0  0  0  0  0  0  0
    2.3609   10.3693   -2.0690 H   0  0  0  0  0  0  0  0  0  0  0  0
    3.3870   11.0878   -0.7493 H   0  0  0  0  0  0  0  0  0  0  0  0
    2.5888    8.8153   -0.1815 H   0  0  0  0  0  0  0  0  0  0  0  0
    1.9652   10.0837    0.9444 H   0  0  0  0  0  0  0  0  0  0  0  0
    0.1786    8.5678    0.4248 H   0  0  0  0  0  0  0  0  0  0  0  0
    0.3480    7.6530   -1.4950 H   0  0  0  0  0  0  0  0  0  0  0  0
   -0.4160   10.1537    1.7924 H   0  0  0  0  0  0  0  0  0  0  0  0
   -0.0823   11.8327    1.2480 H   0  0  0  0  0  0  0  0  0  0  0  0
   -1.7659   11.2063    1.2480 H   0  0  0  0  0  0  0  0  0  0  0  0
   -2.5083    9.6488    0.0698 H   0  0  0  0  0  0  0  0  0  0  0  0
   -2.4189   10.6503   -1.4187 H   0  0  0  0  0  0  0  0  0  0  0  0
   -1.7574    8.9802   -1.4187 H   0  0  0  0  0  0  0  0  0  0  0  0
    3.2773   11.8459   -3.0524 H   0  0  0  0  0  0  0  0  0  0  0  0
    1.7045   12.2085   -3.8409 H   0  0  0  0  0  0  0  0  0  0  0  0
    3.0139   13.4382   -3.8409 H   0  0  0  0  0  0  0  0  0  0  0  0
    3.7605   13.1254   -0.6456 H   0  0  0  0  0  0  0  0  0  0  0  0
    3.7965   14.3688   -2.0197 H   0  0  0  0  0  0  0  0  0  0  0  0
    2.4318   14.6287    0.6737 H   0  0  0  0  0  0  0  0  0  0  0  0
    3.8361   15.5634    0.0251 H   0  0  0  0  0  0  0  0  0  0  0  0
    3.4541   17.3785   -1.7526 H   0  0  0  0  0  0  0  0  0  0  0  0
    3.1204   15.8958   -2.7102 H   0  0  0  0  0  0  0  0  0  0  0  0
    1.9398   17.2497   -2.7102 H   0  0  0  0  0  0  0  0  0  0  0  0
  1  2  1  0
  2  3  1  0
  3  4  1  0
  4  5  1  0
  5  6  1  0
  6  7  1  0
  7  8  1  0
  7  9  1  0
  2 10  1  0
 10 11  1  0
 11 12  1  0
 12 13  1  0
 13 14  1  1
 13 15  1  0
 15 16  1  0
 16 17  1  0
 17 18  2  0
 18 19  1  0
 19 20  1  0
 20 21  1  0
 21 22  1  0
 22 23  1  0
 22 24  1  0
 24 25  1  0
 24 26  1  0
 19 27  1  0
 27 28  1  6
 27 29  1  0
 29 30  1  0
 30 31  1  0
 31 32  1  6
  7  5  1  0
 31 10  1  0
 31 13  1  0
 27 15  1  0
 24 18  1  0
  1 33  1  0
  1 34  1  0
  1 35  1  0
  2 36  1  1
  3 37  1  0
  3 38  1  0
  4 39  1  0
  4 40  1  0
  5 41  1  1
  8 42  1  0
  8 43  1  0
  8 44  1  0
  9 45  1  0
  9 46  1  0
  9 47  1  0
 10 48  1  1
 11 49  1  0
 11 50  1  0
 12 51  1  0
 12 52  1  0
 14 53  1  0
 14 54  1  0
 14 55  1  0
 15 56  1  6
 16 57  1  0
 16 58  1  0
 17 59  1  0
 19 60  1  1
 20 61  1  0
 20 62  1  0
 21 63  1  0
 21 64  1  0
 22 65  1  1
 23 66  1  0
 25 67  1  0
 25 68  1  0
 25 69  1  0
 26 70  1  0
 26 71  1  0
 26 72  1  0
 28 73  1  0
 28 74  1  0
 28 75  1  0
 29 76  1  0
 29 77  1  0
 30 78  1  0
 30 79  1  0
 32 80  1  0
 32 81  1  0
 32 82  1  0
M  END
>  <meeko>  (1) 
{"is_sidechain": [false], "intermolecular_energy": 2.731, "internal_energy": -0.839}

$$$$
EPH_relaxed_0001_pdb2pqr_Repair_292_r2_0001_out
     RDKit          3D

 82 86  0  0  0  0  0  0  0  0999 V2000
    0.4220   18.2930    0.0010 C   0  0  0  0  0  0  0  0  0  0  0  0
    1.4980   17.2280   -0.2250 C   0  0  2  0  0  0  0  0  0  0  0  0
    2.7070   17.7810   -1.0060 C   0  0  0  0  0  0  0  0  0  0  0  0
    3.9450   18.0210   -0.1360 C   0  0  0  0  0  0  0  0  0  0  0  0
    3.5750   18.5240    1.2260 C   0  0  2  0  0  0  0  0  0  0  0  0
    3.7790   19.9300    1.4210 O   0  0  0  0  0  0  0  0  0  0  0  0
    4.5870   19.0550    2.2250 C   0  0  0  0  0  0  0  0  0  0  0  0
    6.0470   19.1070    1.9030 C   0  0  0  0  0  0  0  0  0  0  0  0
    4.2230   19.0630    3.6770 C   0  0  0  0  0  0  0  0  0  0  0  0
    0.9030   16.0350   -0.9640 C   0  0  1  0  0  0  0  0  0  0  0  0
    0.7360   16.2970   -2.4840 C   0  0  0  0  0  0  0  0  0  0  0  0
    1.0040   14.9490   -3.2020 C   0  0  0  0  0  0  0  0  0  0  0  0
    0.9880   13.8950   -2.0710 C   0  0  1  0  0  0  0  0  0  0  0  0
   -0.5240   13.6020   -1.8170 C   0  0  0  0  0  0  0  0  0  0  0  0
    1.7930   12.5810   -2.3390 C   0  0  2  0  0  0  0  0  0  0  0  0
    1.2910   11.7390   -3.5250 C   0  0  0  0  0  0  0  0  0  0  0  0
    0.2650   10.7080   -3.1860 C   0  0  0  0  0  0  0  0  0  0  0  0
   -0.0270   10.2730   -1.9460 C   0  0  0  0  0  0  0  0  0  0  0  0
    0.7760   10.7570   -0.7320 C   0  0  1  0  0  0  0  0  0  0  0  0
    1.1520    9.5430    0.1580 C   0  0  0  0  0  0  0  0  0  0  0  0
   -0.0630    8.7120    0.5560 C   0  0  0  0  0  0  0  0  0  0  0  0
   -0.8020    8.2000   -0.6780 C   0  0  2  0  0  0  0  0  0  0  0  0
    0.0360    7.2630   -1.3610 O   0  0  0  0  0  0  0  0  0  0  0  0
   -1.2230    9.3340   -1.6540 C   0  0  0  0  0  0  0  0  0  0  0  0
   -2.3570   10.1740   -1.0180 C   0  0  0  0  0  0  0  0  0  0  0  0
   -1.8300    8.6720   -2.9200 C   0  0  0  0  0  0  0  0  0  0  0  0
    2.0240   11.6890   -1.0530 C   0  0  1  0  0  0  0  0  0  0  0  0
    3.2820   10.8130   -1.3380 C   0  0  0  0  0  0  0  0  0  0  0  0
    2.3620   12.5500    0.2210 C   0  0  0  0  0  0  0  0  0  0  0  0
    1.6220   13.8940    0.3680 C   0  0  0  0  0  0  0  0  0  0  0  0
    1.6990   14.7070   -0.9280 C   0  0  2  0  0  0  0  0  0  0  0  0
    3.2070   15.0350   -1.1980 C   0  0  0  0  0  0  0  0  0  0  0  0
    0.2731   18.4404    1.0809 H   0  0  0  0  0  0  0  0  0  0  0  0
    0.7417   19.2403   -0.4577 H   0  0  0  0  0  0  0  0  0  0  0  0
   -0.5220   17.9636   -0.4577 H   0  0  0  0  0  0  0  0  0  0  0  0
    1.8603   16.9096    0.7636 H   0  0  0  0  0  0  0  0  0  0  0  0
    2.9707   17.0600   -1.7938 H   0  0  0  0  0  0  0  0  0  0  0  0
    2.4067   18.7574   -1.4139 H   0  0  0  0  0  0  0  0  0  0  0  0
    4.4949   17.0743   -0.0293 H   0  0  0  0  0  0  0  0  0  0  0  0
    4.5667   18.7844   -0.6267 H   0  0  0  0  0  0  0  0  0  0  0  0
    2.7768   17.7721    1.3129 H   0  0  0  0  0  0  0  0  0  0  0  0
    6.6279   19.1277    2.8369 H   0  0  0  0  0  0  0  0  0  0  0  0
    6.3253   18.2182    1.3177 H   0  0  0  0  0  0  0  0  0  0  0  0
    6.2613   20.0133    1.3177 H   0  0  0  0  0  0  0  0  0  0  0  0
    5.1395   19.0429    4.2849 H   0  0  0  0  0  0  0  0  0  0  0  0
    3.6507   19.9739    3.9065 H   0  0  0  0  0  0  0  0  0  0  0  0
    3.6113   18.1781    3.9065 H   0  0  0  0  0  0  0  0  0  0  0  0
   -0.0387   15.9238   -0.4065 H   0  0  0  0  0  0  0  0  0  0  0  0
   -0.2855   16.6441   -2.6986 H   0  0  0  0  0  0  0  0  0  0  0  0
    1.4332   17.0744   -2.8299 H   0  0  0  0  0  0  0  0  0  0  0  0
    0.2159   14.7387   -3.9400 H   0  0  0  0  0  0  0  0  0  0  0  0
    1.9547   14.9528   -3.7554 H   0  0  0  0  0  0  0  0  0  0  0  0
   -0.7135   13.5653   -0.7341 H   0  0  0  0  0  0  0  0  0  0  0  0
   -1.1329   14.3989   -2.2690 H   0  0  0  0  0  0  0  0  0  0  0  0
   -0.7911   12.6354   -2.2690 H   0  0  0  0  0  0  0  0  0  0  0  0
    2.7783   12.9652   -2.6416 H   0  0  0  0  0  0  0  0  0  0  0  0
    0.8531   12.4234   -4.2666 H   0  0  0  0  0  0  0  0  0  0  0  0
    2.1660   11.1866   -3.8982 H   0  0  0  0  0  0  0  0  0  0  0  0
   -0.3000   10.2667   -4.0203 H   0  0  0  0  0  0  0  0  0  0  0  0
    0.1100   11.4341   -0.1770 H   0  0  0  0  0  0  0  0  0  0  0  0
    1.8515    8.9013   -0.3979 H   0  0  0  0  0  0  0  0  0  0  0  0
    1.6068    9.9331    1.0805 H   0  0  0  0  0  0  0  0  0  0  0  0
    0.2695    7.8537    1.1583 H   0  0  0  0  0  0  0  0  0  0  0  0
   -0.7478    9.3473    1.1368 H   0  0  0  0  0  0  0  0  0  0  0  0
   -1.7311    7.7232   -0.3325 H   0  0  0  0  0  0  0  0  0  0  0  0
    0.8050    7.0860   -0.7920 H   0  0  0  0  0  0  0  0  0  0  0  0
   -2.2832   10.1193    0.0782 H   0  0  0  0  0  0  0  0  0  0  0  0
   -2.2622   11.2215   -1.3401 H   0  0  0  0  0  0  0  0  0  0  0  0
   -3.3314    9.7781   -1.3401 H   0  0  0  0  0  0  0  0  0  0  0  0
   -2.5450    7.8922   -2.6190 H   0  0  0  0  0  0  0  0  0  0  0  0
   -2.3496    9.4343   -3.5191 H   0  0  0  0  0  0  0  0  0  0  0  0
   -1.0256    8.2204   -3.5191 H   0  0  0  0  0  0  0  0  0  0  0  0
    3.7334   10.4987   -0.3854 H   0  0  0  0  0  0  0  0  0  0  0  0
    2.9868    9.9241   -1.9148 H   0  0  0  0  0  0  0  0  0  0  0  0
    4.0133   11.3982   -1.9148 H   0  0  0  0  0  0  0  0  0  0  0  0
    2.1255   11.9414    1.1062 H   0  0  0  0  0  0  0  0  0  0  0  0
    3.4240   12.8163    0.1149 H   0  0  0  0  0  0  0  0  0  0  0  0
    0.5664   13.6992    0.6084 H   0  0  0  0  0  0  0  0  0  0  0  0
    2.1000   14.4713    1.1731 H   0  0  0  0  0  0  0  0  0  0  0  0
    3.7346   15.1497   -0.2396 H   0  0  0  0  0  0  0  0  0  0  0  0
    3.6635   14.2151   -1.7720 H   0  0  0  0  0  0  0  0  0  0  0  0
    3.2817   15.9704   -1.7720 H   0  0  0  0  0  0  0  0  0  0  0  0
  1  2  1  0
  2  3  1  0
  3  4  1  0
  4  5  1  0
  5  6  1  0
  6  7  1  0
  7  8  1  0
  7  9  1  0
  2 10  1  0
 10 11  1  0
 11 12  1  0
 12 13  1  0
 13 14  1  1
 13 15  1  0
 15 16  1  0
 16 17  1  0
 17 18  2  0
 18 19  1  0
 19 20  1  0
 20 21  1  0
 21 22  1  0
 22 23  1  0
 22 24  1  0
 24 25  1  0
 24 26  1  0
 19 27  1  0
 27 28  1  6
 27 29  1  0
 29 30  1  0
 30 31  1  0
 31 32  1  6
  7  5  1  0
 31 10  1  0
 31 13  1  0
 27 15  1  0
 24 18  1  0
  1 33  1  0
  1 34  1  0
  1 35  1  0
  2 36  1  1
  3 37  1  0
  3 38  1  0
  4 39  1  0
  4 40  1  0
  5 41  1  1
  8 42  1  0
  8 43  1  0
  8 44  1  0
  9 45  1  0
  9 46  1  0
  9 47  1  0
 10 48  1  1
 11 49  1  0
 11 50  1  0
 12 51  1  0
 12 52  1  0
 14 53  1  0
 14 54  1  0
 14 55  1  0
 15 56  1  6
 16 57  1  0
 16 58  1  0
 17 59  1  0
 19 60  1  1
 20 61  1  0
 20 62  1  0
 21 63  1  0
 21 64  1  0
 22 65  1  1
 23 66  1  0
 25 67  1  0
 25 68  1  0
 25 69  1  0
 26 70  1  0
 26 71  1  0
 26 72  1  0
 28 73  1  0
 28 74  1  0
 28 75  1  0
 29 76  1  0
 29 77  1  0
 30 78  1  0
 30 79  1  0
 32 80  1  0
 32 81  1  0
 32 82  1  0
M  END
>  <meeko>  (2) 
{"is_sidechain": [false], "intermolecular_energy": 2.731, "internal_energy": -0.839}

$$$$
EPH_relaxed_0001_pdb2pqr_Repair_292_r2_0001_out
     RDKit          3D

 82 86  0  0  0  0  0  0  0  0999 V2000
    3.7360   17.5850    0.7730 C   0  0  0  0  0  0  0  0  0  0  0  0
    2.7980   17.8830   -0.4000 C   0  0  2  0  0  0  0  0  0  0  0  0
    2.1330   19.2690   -0.2750 C   0  0  0  0  0  0  0  0  0  0  0  0
    1.1060   19.3590    0.8570 C   0  0  0  0  0  0  0  0  0  0  0  0
   -0.1610   20.0190    0.4040 C   0  0  2  0  0  0  0  0  0  0  0  0
   -1.1460   20.1930    1.4310 O   0  0  0  0  0  0  0  0  0  0  0  0
   -1.5020   19.3110    0.3540 C   0  0  0  0  0  0  0  0  0  0  0  0
   -1.6440   17.8780    0.7620 C   0  0  0  0  0  0  0  0  0  0  0  0
   -2.5670   19.8570   -0.5460 C   0  0  0  0  0  0  0  0  0  0  0  0
    1.7290   16.8000   -0.4990 C   0  0  1  0  0  0  0  0  0  0  0  0
    0.4210   17.3100   -1.1590 C   0  0  0  0  0  0  0  0  0  0  0  0
   -0.1570   16.1280   -1.9790 C   0  0  0  0  0  0  0  0  0  0  0  0
    0.6460   14.8940   -1.5030 C   0  0  1  0  0  0  0  0  0  0  0  0
   -0.0360   14.4650   -0.1660 C   0  0  0  0  0  0  0  0  0  0  0  0
    0.7430   13.7030   -2.5100 C   0  0  2  0  0  0  0  0  0  0  0  0
   -0.6000   13.0480   -2.8790 C   0  0  0  0  0  0  0  0  0  0  0  0
   -1.0150   11.9100   -2.0070 C   0  0  0  0  0  0  0  0  0  0  0  0
   -0.2150   11.2480   -1.1510 C   0  0  0  0  0  0  0  0  0  0  0  0
    1.2840   11.5650   -1.0680 C   0  0  1  0  0  0  0  0  0  0  0  0
    2.0940   10.2430   -1.0710 C   0  0  0  0  0  0  0  0  0  0  0  0
    1.6420    9.2770    0.0200 C   0  0  0  0  0  0  0  0  0  0  0  0
    0.1600    8.9400   -0.1300 C   0  0  2  0  0  0  0  0  0  0  0  0
   -0.0220    8.1920   -1.3370 O   0  0  0  0  0  0  0  0  0  0  0  0
   -0.7550   10.1960   -0.1510 C   0  0  0  0  0  0  0  0  0  0  0  0
   -0.7890   10.8380    1.2590 C   0  0  0  0  0  0  0  0  0  0  0  0
   -2.2040    9.7260   -0.4490 C   0  0  0  0  0  0  0  0  0  0  0  0
    1.8290   12.6170   -2.1270 C   0  0  1  0  0  0  0  0  0  0  0  0
    2.2160   11.8880   -3.4500 C   0  0  0  0  0  0  0  0  0  0  0  0
    3.1530   13.2650   -1.5730 C   0  0  0  0  0  0  0  0  0  0  0  0
    2.9960   14.5110   -0.6810 C   0  0  0  0  0  0  0  0  0  0  0  0
    2.0690   15.5400   -1.3340 C   0  0  2  0  0  0  0  0  0  0  0  0
    2.7390   16.0080   -2.6710 C   0  0  0  0  0  0  0  0  0  0  0  0
    3.2034   17.7542    1.7205 H   0  0  0  0  0  0  0  0  0  0  0  0
    4.0673   16.5374    0.7206 H   0  0  0  0  0  0  0  0  0  0  0  0
    4.6112   18.2493    0.7206 H   0  0  0  0  0  0  0  0  0  0  0  0
    3.4066   17.8902   -1.3163 H   0  0  0  0  0  0  0  0  0  0  0  0
    2.9191   20.0160   -0.0909 H   0  0  0  0  0  0  0  0  0  0  0  0
    1.5920   19.4520   -1.2152 H   0  0  0  0  0  0  0  0  0  0  0  0
    0.8729   18.3431    1.2086 H   0  0  0  0  0  0  0  0  0  0  0  0
    1.5390   19.9660    1.6657 H   0  0  0  0  0  0  0  0  0  0  0  0
    0.3877   20.6132   -0.3415 H   0  0  0  0  0  0  0  0  0  0  0  0
   -1.6509   17.8083    1.8598 H   0  0  0  0  0  0  0  0  0  0  0  0
   -2.5865   17.4748    0.3630 H   0  0  0  0  0  0  0  0  0  0  0  0
   -0.7990   17.2977    0.3630 H   0  0  0  0  0  0  0  0  0  0  0  0
   -3.3824   20.2751    0.0625 H   0  0  0  0  0  0  0  0  0  0  0  0
   -2.1407   20.6477   -1.1808 H   0  0  0  0  0  0  0  0  0  0  0  0
   -2.9602   19.0493   -1.1808 H   0  0  0  0  0  0  0  0  0  0  0  0
    1.6376   16.5332    0.5642 H   0  0  0  0  0  0  0  0  0  0  0  0
   -0.2968   17.6215   -0.3859 H   0  0  0  0  0  0  0  0  0  0  0  0
    0.6171   18.1793   -1.8038 H   0  0  0  0  0  0  0  0  0  0  0  0
   -1.2291   15.9979   -1.7702 H   0  0  0  0  0  0  0  0  0  0  0  0
   -0.0694   16.2900   -3.0635 H   0  0  0  0  0  0  0  0  0  0  0  0
    0.5557   14.8372    0.6833 H   0  0  0  0  0  0  0  0  0  0  0  0
   -1.0504   14.8880   -0.1196 H   0  0  0  0  0  0  0  0  0  0  0  0
   -0.0939   13.3675   -0.1196 H   0  0  0  0  0  0  0  0  0  0  0  0
    1.0954   14.1985   -3.4267 H   0  0  0  0  0  0  0  0  0  0  0  0
   -1.3813   13.8204   -2.8246 H   0  0  0  0  0  0  0  0  0  0  0  0
   -0.4666   12.6267   -3.8863 H   0  0  0  0  0  0  0  0  0  0  0  0
   -2.0640   11.5848   -2.0693 H   0  0  0  0  0  0  0  0  0  0  0  0
    1.4315   12.0902   -0.1128 H   0  0  0  0  0  0  0  0  0  0  0  0
    1.9681    9.7546   -2.0486 H   0  0  0  0  0  0  0  0  0  0  0  0
    3.1468   10.4962   -0.8773 H   0  0  0  0  0  0  0  0  0  0  0  0
    2.2310    8.3508   -0.0524 H   0  0  0  0  0  0  0  0  0  0  0  0
    1.7963    9.7551    0.9986 H   0  0  0  0  0  0  0  0  0  0  0  0
   -0.1357    8.3517    0.7512 H   0  0  0  0  0  0  0  0  0  0  0  0
   -0.2540    8.8210   -2.0410 H   0  0  0  0  0  0  0  0  0  0  0  0
   -0.7471   10.0476    2.0229 H   0  0  0  0  0  0  0  0  0  0  0  0
    0.0749   11.5086    1.3775 H   0  0  0  0  0  0  0  0  0  0  0  0
   -1.7189   11.4136    1.3775 H   0  0  0  0  0  0  0  0  0  0  0  0
   -2.7357    9.5535    0.4984 H   0  0  0  0  0  0  0  0  0  0  0  0
   -2.7287   10.5000   -1.0283 H   0  0  0  0  0  0  0  0  0  0  0  0
   -2.1745    8.7914   -1.0283 H   0  0  0  0  0  0  0  0  0  0  0  0
    2.7196   10.9394   -3.2122 H   0  0  0  0  0  0  0  0  0  0  0  0
    1.3074   11.6840   -4.0356 H   0  0  0  0  0  0  0  0  0  0  0  0
    2.8940   12.5263   -4.0356 H   0  0  0  0  0  0  0  0  0  0  0  0
    3.6777   12.4982   -0.9842 H   0  0  0  0  0  0  0  0  0  0  0  0
    3.6965   13.6148   -2.4630 H   0  0  0  0  0  0  0  0  0  0  0  0
    2.5720   14.2086    0.2879 H   0  0  0  0  0  0  0  0  0  0  0  0
    3.9861   14.9696   -0.5421 H   0  0  0  0  0  0  0  0  0  0  0  0
    3.6212   16.6242   -2.4430 H   0  0  0  0  0  0  0  0  0  0  0  0
    3.0474   15.1278   -3.2543 H   0  0  0  0  0  0  0  0  0  0  0  0
    2.0188   16.6005   -3.2543 H   0  0  0  0  0  0  0  0  0  0  0  0
  1  2  1  0
  2  3  1  0
  3  4  1  0
  4  5  1  0
  5  6  1  0
  6  7  1  0
  7  8  1  0
  7  9  1  0
  2 10  1  0
 10 11  1  0
 11 12  1  0
 12 13  1  0
 13 14  1  1
 13 15  1  0
 15 16  1  0
 16 17  1  0
 17 18  2  0
 18 19  1  0
 19 20  1  0
 20 21  1  0
 21 22  1  0
 22 23  1  0
 22 24  1  0
 24 25  1  0
 24 26  1  0
 19 27  1  0
 27 28  1  6
 27 29  1  0
 29 30  1  0
 30 31  1  0
 31 32  1  6
  7  5  1  0
 31 10  1  0
 31 13  1  0
 27 15  1  0
 24 18  1  0
  1 33  1  0
  1 34  1  0
  1 35  1  0
  2 36  1  6
  3 37  1  0
  3 38  1  0
  4 39  1  0
  4 40  1  0
  5 41  1  6
  8 42  1  0
  8 43  1  0
  8 44  1  0
  9 45  1  0
  9 46  1  0
  9 47  1  0
 10 48  1  1
 11 49  1  0
 11 50  1  0
 12 51  1  0
 12 52  1  0
 14 53  1  0
 14 54  1  0
 14 55  1  0
 15 56  1  6
 16 57  1  0
 16 58  1  0
 17 59  1  0
 19 60  1  1
 20 61  1  0
 20 62  1  0
 21 63  1  0
 21 64  1  0
 22 65  1  1
 23 66  1  0
 25 67  1  0
 25 68  1  0
 25 69  1  0
 26 70  1  0
 26 71  1  0
 26 72  1  0
 28 73  1  0
 28 74  1  0
 28 75  1  0
 29 76  1  0
 29 77  1  0
 30 78  1  0
 30 79  1  0
 32 80  1  0
 32 81  1  0
 32 82  1  0
M  END
>  <meeko>  (3) 
{"is_sidechain": [false], "intermolecular_energy": 2.731, "internal_energy": -0.839}

$$$$
EPH_relaxed_0001_pdb2pqr_Repair_292_r2_0001_out
     RDKit          3D

 82 86  0  0  0  0  0  0  0  0999 V2000
   -5.1790    5.8100   -1.6670 C   0  0  0  0  0  0  0  0  0  0  0  0
   -5.4580    7.3140   -1.7500 C   0  0  2  0  0  0  0  0  0  0  0  0
   -5.2260    8.0230   -0.4010 C   0  0  0  0  0  0  0  0  0  0  0  0
   -4.1850    9.1440   -0.4660 C   0  0  0  0  0  0  0  0  0  0  0  0
   -2.8210    8.6160   -0.7930 C   0  0  2  0  0  0  0  0  0  0  0  0
   -1.8090    8.9310    0.1730 O   0  0  0  0  0  0  0  0  0  0  0  0
   -1.6390    9.5040   -1.1340 C   0  0  0  0  0  0  0  0  0  0  0  0
   -1.7670   10.9950   -1.1660 C   0  0  0  0  0  0  0  0  0  0  0  0
   -0.5000    8.9150   -1.9070 C   0  0  0  0  0  0  0  0  0  0  0  0
   -6.8860    7.5510   -2.2250 C   0  0  1  0  0  0  0  0  0  0  0  0
   -7.1890    6.8570   -3.5790 C   0  0  0  0  0  0  0  0  0  0  0  0
   -8.6690    6.3970   -3.5250 C   0  0  0  0  0  0  0  0  0  0  0  0
   -9.2590    7.1240   -2.2940 C   0  0  1  0  0  0  0  0  0  0  0  0
   -9.5940    8.5620   -2.8010 C   0  0  0  0  0  0  0  0  0  0  0  0
  -10.4960    6.4470   -1.6190 C   0  0  2  0  0  0  0  0  0  0  0  0
  -11.7440    6.3310   -2.5110 C   0  0  0  0  0  0  0  0  0  0  0  0
  -12.6890    7.4850   -2.4380 C   0  0  0  0  0  0  0  0  0  0  0  0
  -12.6920    8.4340   -1.4840 C   0  0  0  0  0  0  0  0  0  0  0  0
  -11.7370    8.3510   -0.2860 C   0  0  1  0  0  0  0  0  0  0  0  0
  -12.5210    8.6380    1.0220 C   0  0  0  0  0  0  0  0  0  0  0  0
  -13.2790    9.9610    0.9710 C   0  0  0  0  0  0  0  0  0  0  0  0
  -14.2600    9.9830   -0.1980 C   0  0  2  0  0  0  0  0  0  0  0  0
  -15.2870    9.0170    0.0440 O   0  0  0  0  0  0  0  0  0  0  0  0
  -13.5850    9.6960   -1.5690 C   0  0  0  0  0  0  0  0  0  0  0  0
  -12.6940   10.8970   -1.9720 C   0  0  0  0  0  0  0  0  0  0  0  0
  -14.7040    9.6080   -2.6420 C   0  0  0  0  0  0  0  0  0  0  0  0
  -10.8560    7.0310   -0.1930 C   0  0  1  0  0  0  0  0  0  0  0  0
  -11.6460    5.9160    0.5590 C   0  0  0  0  0  0  0  0  0  0  0  0
   -9.5750    7.3290    0.6730 C   0  0  0  0  0  0  0  0  0  0  0  0
   -8.3460    7.8840   -0.0720 C   0  0  0  0  0  0  0  0  0  0  0  0
   -8.0320    7.0440   -1.3140 C   0  0  2  0  0  0  0  0  0  0  0  0
   -7.6700    5.5980   -0.8340 C   0  0  0  0  0  0  0  0  0  0  0  0
   -5.1225    5.5053   -0.6116 H   0  0  0  0  0  0  0  0  0  0  0  0
   -5.9902    5.2586   -2.1649 H   0  0  0  0  0  0  0  0  0  0  0  0
   -4.2240    5.5862   -2.1649 H   0  0  0  0  0  0  0  0  0  0  0  0
   -4.7494    7.7432   -2.4736 H   0  0  0  0  0  0  0  0  0  0  0  0
   -6.1809    8.4548   -0.0668 H   0  0  0  0  0  0  0  0  0  0  0  0
   -4.8403    7.2662    0.2979 H   0  0  0  0  0  0  0  0  0  0  0  0
   -4.4842    9.8636   -1.2423 H   0  0  0  0  0  0  0  0  0  0  0  0
   -4.1382    9.6260    0.5217 H   0  0  0  0  0  0  0  0  0  0  0  0
   -3.2557    7.7406   -1.2976 H   0  0  0  0  0  0  0  0  0  0  0  0
   -1.8003   11.3823   -0.1370 H   0  0  0  0  0  0  0  0  0  0  0  0
   -0.9026   11.4260   -1.6923 H   0  0  0  0  0  0  0  0  0  0  0  0
   -2.6923   11.2724   -1.6923 H   0  0  0  0  0  0  0  0  0  0  0  0
    0.2545    8.5248   -1.2081 H   0  0  0  0  0  0  0  0  0  0  0  0
   -0.8714    8.0959   -2.5404 H   0  0  0  0  0  0  0  0  0  0  0  0
   -0.0463    9.6915   -2.5404 H   0  0  0  0  0  0  0  0  0  0  0  0
   -6.8887    8.6505   -2.2569 H   0  0  0  0  0  0  0  0  0  0  0  0
   -7.0423    7.5645   -4.4084 H   0  0  0  0  0  0  0  0  0  0  0  0
   -6.5158    6.0029   -3.7442 H   0  0  0  0  0  0  0  0  0  0  0  0
   -9.2009    6.6915   -4.4417 H   0  0  0  0  0  0  0  0  0  0  0  0
   -8.7634    5.3037   -3.4486 H   0  0  0  0  0  0  0  0  0  0  0  0
   -9.7491    9.2278   -1.9392 H   0  0  0  0  0  0  0  0  0  0  0  0
   -8.7598    8.9395   -3.4105 H   0  0  0  0  0  0  0  0  0  0  0  0
  -10.5092    8.5320   -3.4105 H   0  0  0  0  0  0  0  0  0  0  0  0
  -10.1450    5.4163   -1.4623 H   0  0  0  0  0  0  0  0  0  0  0  0
  -11.4085    6.2317   -3.5539 H   0  0  0  0  0  0  0  0  0  0  0  0
  -12.3014    5.4571   -2.1428 H   0  0  0  0  0  0  0  0  0  0  0  0
  -13.4468    7.5661   -3.2312 H   0  0  0  0  0  0  0  0  0  0  0  0
  -10.9792    9.1323   -0.4454 H   0  0  0  0  0  0  0  0  0  0  0  0
  -13.2426    7.8242    1.1864 H   0  0  0  0  0  0  0  0  0  0  0  0
  -11.7905    8.7029    1.8419 H   0  0  0  0  0  0  0  0  0  0  0  0
  -13.8356   10.0934    1.9105 H   0  0  0  0  0  0  0  0  0  0  0  0
  -12.5532   10.7764    0.8356 H   0  0  0  0  0  0  0  0  0  0  0  0
  -14.6771   10.9989   -0.2600 H   0  0  0  0  0  0  0  0  0  0  0  0
  -15.7830    9.3050    0.8290 H   0  0  0  0  0  0  0  0  0  0  0  0
  -12.3223   11.3981   -1.0660 H   0  0  0  0  0  0  0  0  0  0  0  0
  -11.8421   10.5378   -2.5681 H   0  0  0  0  0  0  0  0  0  0  0  0
  -13.2848   11.6081   -2.5681 H   0  0  0  0  0  0  0  0  0  0  0  0
  -15.6827    9.5310   -2.1457 H   0  0  0  0  0  0  0  0  0  0  0  0
  -14.6814   10.5107   -3.2702 H   0  0  0  0  0  0  0  0  0  0  0  0
  -14.5406    8.7199   -3.2702 H   0  0  0  0  0  0  0  0  0  0  0  0
  -11.5426    6.0619    1.6444 H   0  0  0  0  0  0  0  0  0  0  0  0
  -12.7091    5.9691    0.2815 H   0  0  0  0  0  0  0  0  0  0  0  0
  -11.2434    4.9307    0.2815 H   0  0  0  0  0  0  0  0  0  0  0  0
   -9.8569    8.0627    1.4425 H   0  0  0  0  0  0  0  0  0  0  0  0
   -9.2574    6.3507    1.0629 H   0  0  0  0  0  0  0  0  0  0  0  0
   -8.5498    8.9200   -0.3804 H   0  0  0  0  0  0  0  0  0  0  0  0
   -7.4795    7.8470    0.6046 H   0  0  0  0  0  0  0  0  0  0  0  0
   -7.6624    5.5678    0.2656 H   0  0  0  0  0  0  0  0  0  0  0  0
   -8.4179    4.8871   -1.2152 H   0  0  0  0  0  0  0  0  0  0  0  0
   -6.6754    5.3234   -1.2152 H   0  0  0  0  0  0  0  0  0  0  0  0
  1  2  1  0
  2  3  1  0
  3  4  1  0
  4  5  1  0
  5  6  1  0
  6  7  1  0
  7  8  1  0
  7  9  1  0
  2 10  1  0
 10 11  1  0
 11 12  1  0
 12 13  1  0
 13 14  1  6
 13 15  1  0
 15 16  1  0
 16 17  1  0
 17 18  2  0
 18 19  1  0
 19 20  1  0
 20 21  1  0
 21 22  1  0
 22 23  1  0
 22 24  1  0
 24 25  1  0
 24 26  1  0
 19 27  1  0
 27 28  1  1
 27 29  1  0
 29 30  1  0
 30 31  1  0
 31 32  1  1
  7  5  1  0
 31 10  1  0
 31 13  1  0
 27 15  1  0
 24 18  1  0
  1 33  1  0
  1 34  1  0
  1 35  1  0
  2 36  1  6
  3 37  1  0
  3 38  1  0
  4 39  1  0
  4 40  1  0
  5 41  1  6
  8 42  1  0
  8 43  1  0
  8 44  1  0
  9 45  1  0
  9 46  1  0
  9 47  1  0
 10 48  1  6
 11 49  1  0
 11 50  1  0
 12 51  1  0
 12 52  1  0
 14 53  1  0
 14 54  1  0
 14 55  1  0
 15 56  1  1
 16 57  1  0
 16 58  1  0
 17 59  1  0
 19 60  1  6
 20 61  1  0
 20 62  1  0
 21 63  1  0
 21 64  1  0
 22 65  1  6
 23 66  1  0
 25 67  1  0
 25 68  1  0
 25 69  1  0
 26 70  1  0
 26 71  1  0
 26 72  1  0
 28 73  1  0
 28 74  1  0
 28 75  1  0
 29 76  1  0
 29 77  1  0
 30 78  1  0
 30 79  1  0
 32 80  1  0
 32 81  1  0
 32 82  1  0
M  END
>  <meeko>  (4) 
{"is_sidechain": [false], "intermolecular_energy": 2.731, "internal_energy": -0.839}

$$$$
EPH_relaxed_0001_pdb2pqr_Repair_292_r2_0001_out
     RDKit          3D

 82 86  0  0  0  0  0  0  0  0999 V2000
   -1.9300    8.2420   -2.1400 C   0  0  0  0  0  0  0  0  0  0  0  0
   -2.2170    8.6520   -0.6930 C   0  0  2  0  0  0  0  0  0  0  0  0
   -3.6870    9.0730   -0.4900 C   0  0  0  0  0  0  0  0  0  0  0  0
   -4.6530    7.8920   -0.3640 C   0  0  0  0  0  0  0  0  0  0  0  0
   -5.3820    7.6330   -1.6480 C   0  0  2  0  0  0  0  0  0  0  0  0
   -6.4410    8.5570   -1.9310 O   0  0  0  0  0  0  0  0  0  0  0  0
   -6.8320    7.1910   -1.7120 C   0  0  0  0  0  0  0  0  0  0  0  0
   -7.6400    6.9820   -0.4690 C   0  0  0  0  0  0  0  0  0  0  0  0
   -7.3150    6.4970   -2.9460 C   0  0  0  0  0  0  0  0  0  0  0  0
   -1.2890    9.7890   -0.2810 C   0  0  1  0  0  0  0  0  0  0  0  0
   -0.2580    9.3570    0.7960 C   0  0  0  0  0  0  0  0  0  0  0  0
    1.0500   10.1360    0.5010 C   0  0  0  0  0  0  0  0  0  0  0  0
    0.6350   11.2250   -0.5160 C   0  0  1  0  0  0  0  0  0  0  0  0
    0.0030   12.3610    0.3480 C   0  0  0  0  0  0  0  0  0  0  0  0
    1.7670   11.7680   -1.4470 C   0  0  2  0  0  0  0  0  0  0  0  0
    2.9230   12.4780   -0.7210 C   0  0  0  0  0  0  0  0  0  0  0  0
    2.7530   13.9500   -0.5380 C   0  0  0  0  0  0  0  0  0  0  0  0
    1.8580   14.7200   -1.1820 C   0  0  0  0  0  0  0  0  0  0  0  0
    0.9590   14.1340   -2.2790 C   0  0  1  0  0  0  0  0  0  0  0  0
    0.9590   15.0800   -3.5090 C   0  0  0  0  0  0  0  0  0  0  0  0
    0.5770   16.5110   -3.1450 C   0  0  0  0  0  0  0  0  0  0  0  0
    1.5280   17.0800   -2.0950 C   0  0  2  0  0  0  0  0  0  0  0  0
    2.8280   17.2170   -2.6770 O   0  0  0  0  0  0  0  0  0  0  0  0
    1.6190   16.2050   -0.8140 C   0  0  0  0  0  0  0  0  0  0  0  0
    0.2910   16.3020   -0.0220 C   0  0  0  0  0  0  0  0  0  0  0  0
    2.7150   16.8130    0.1030 C   0  0  0  0  0  0  0  0  0  0  0  0
    1.2440   12.6210   -2.6730 C   0  0  1  0  0  0  0  0  0  0  0  0
    2.3540   12.5560   -3.7660 C   0  0  0  0  0  0  0  0  0  0  0  0
   -0.0530   12.0050   -3.3200 C   0  0  0  0  0  0  0  0  0  0  0  0
   -1.0780   11.3760   -2.3580 C   0  0  0  0  0  0  0  0  0  0  0  0
   -0.3950   10.4120   -1.3830 C   0  0  2  0  0  0  0  0  0  0  0  0
    0.2300    9.2460   -2.2220 C   0  0  0  0  0  0  0  0  0  0  0  0
   -1.2992    7.3409   -2.1475 H   0  0  0  0  0  0  0  0  0  0  0  0
   -2.8781    8.0302   -2.6560 H   0  0  0  0  0  0  0  0  0  0  0  0
   -1.4065    9.0603   -2.6560 H   0  0  0  0  0  0  0  0  0  0  0  0
   -2.0336    7.7732   -0.0574 H   0  0  0  0  0  0  0  0  0  0  0  0
   -3.7523    9.6748    0.4285 H   0  0  0  0  0  0  0  0  0  0  0  0
   -3.9860    9.6392   -1.3845 H   0  0  0  0  0  0  0  0  0  0  0  0
   -4.0824    6.9923   -0.0902 H   0  0  0  0  0  0  0  0  0  0  0  0
   -5.3962    8.1376    0.4089 H   0  0  0  0  0  0  0  0  0  0  0  0
   -4.4686    7.2353   -2.1145 H   0  0  0  0  0  0  0  0  0  0  0  0
   -7.0043    7.1464    0.4135 H   0  0  0  0  0  0  0  0  0  0  0  0
   -8.4796    7.6925   -0.4536 H   0  0  0  0  0  0  0  0  0  0  0  0
   -8.0298    5.9535   -0.4536 H   0  0  0  0  0  0  0  0  0  0  0  0
   -7.9221    5.6247   -2.6623 H   0  0  0  0  0  0  0  0  0  0  0  0
   -7.9262    7.1910   -3.5416 H   0  0  0  0  0  0  0  0  0  0  0  0
   -6.4519    6.1649   -3.5416 H   0  0  0  0  0  0  0  0  0  0  0  0
   -2.0348   10.5229    0.0582 H   0  0  0  0  0  0  0  0  0  0  0  0
   -0.6307    9.6089    1.7998 H   0  0  0  0  0  0  0  0  0  0  0  0
   -0.0864    8.2709    0.7653 H   0  0  0  0  0  0  0  0  0  0  0  0
    1.4452   10.5934    1.4200 H   0  0  0  0  0  0  0  0  0  0  0  0
    1.8453    9.4833    0.1118 H   0  0  0  0  0  0  0  0  0  0  0  0
    0.1336   12.1262    1.4147 H   0  0  0  0  0  0  0  0  0  0  0  0
    0.4999   13.3153    0.1191 H   0  0  0  0  0  0  0  0  0  0  0  0
   -1.0699   12.4420    0.1191 H   0  0  0  0  0  0  0  0  0  0  0  0
    2.1964   10.8439   -1.8612 H   0  0  0  0  0  0  0  0  0  0  0  0
    3.0304   12.0220    0.2742 H   0  0  0  0  0  0  0  0  0  0  0  0
    3.8082   12.3513   -1.3617 H   0  0  0  0  0  0  0  0  0  0  0  0
    3.4163   14.4470    0.1852 H   0  0  0  0  0  0  0  0  0  0  0  0
   -0.0520   14.0819   -1.8486 H   0  0  0  0  0  0  0  0  0  0  0  0
    1.9667   15.0852   -3.9501 H   0  0  0  0  0  0  0  0  0  0  0  0
    0.2084   14.7041   -4.2198 H   0  0  0  0  0  0  0  0  0  0  0  0
    0.6227   17.1366   -4.0486 H   0  0  0  0  0  0  0  0  0  0  0  0
   -0.4418   16.5074   -2.7303 H   0  0  0  0  0  0  0  0  0  0  0  0
    1.1283   18.0556   -1.7812 H   0  0  0  0  0  0  0  0  0  0  0  0
    2.7460   17.8080   -3.4450 H   0  0  0  0  0  0  0  0  0  0  0  0
    0.5055   16.2863    1.0568 H   0  0  0  0  0  0  0  0  0  0  0  0
   -0.2223   17.2400   -0.2802 H   0  0  0  0  0  0  0  0  0  0  0  0
   -0.3531   15.4485   -0.2802 H   0  0  0  0  0  0  0  0  0  0  0  0
    2.4383   16.6595    1.1565 H   0  0  0  0  0  0  0  0  0  0  0  0
    3.6772   16.3197   -0.0990 H   0  0  0  0  0  0  0  0  0  0  0  0
    2.8058   17.8905   -0.0990 H   0  0  0  0  0  0  0  0  0  0  0  0
    3.3408   12.4982   -3.2834 H   0  0  0  0  0  0  0  0  0  0  0  0
    2.1996   11.6654   -4.3928 H   0  0  0  0  0  0  0  0  0  0  0  0
    2.3047   13.4586   -4.3928 H   0  0  0  0  0  0  0  0  0  0  0  0
   -0.5636   12.8084   -3.8712 H   0  0  0  0  0  0  0  0  0  0  0  0
    0.3044   11.1725   -3.9439 H   0  0  0  0  0  0  0  0  0  0  0  0
   -1.5728   12.1752   -1.7866 H   0  0  0  0  0  0  0  0  0  0  0  0
   -1.8148   10.8129   -2.9497 H   0  0  0  0  0  0  0  0  0  0  0  0
    0.6387    8.4835   -1.5426 H   0  0  0  0  0  0  0  0  0  0  0  0
   -0.5465    8.7935   -2.8563 H   0  0  0  0  0  0  0  0  0  0  0  0
    1.0367    9.6422   -2.8563 H   0  0  0  0  0  0  0  0  0  0  0  0
  1  2  1  0
  2  3  1  0
  3  4  1  0
  4  5  1  0
  5  6  1  0
  6  7  1  0
  7  8  1  0
  7  9  1  0
  2 10  1  0
 10 11  1  0
 11 12  1  0
 12 13  1  0
 13 14  1  1
 13 15  1  0
 15 16  1  0
 16 17  1  0
 17 18  2  0
 18 19  1  0
 19 20  1  0
 20 21  1  0
 21 22  1  0
 22 23  1  0
 22 24  1  0
 24 25  1  0
 24 26  1  0
 19 27  1  0
 27 28  1  6
 27 29  1  0
 29 30  1  0
 30 31  1  0
 31 32  1  6
  7  5  1  0
 31 10  1  0
 31 13  1  0
 27 15  1  0
 24 18  1  0
  1 33  1  0
  1 34  1  0
  1 35  1  0
  2 36  1  1
  3 37  1  0
  3 38  1  0
  4 39  1  0
  4 40  1  0
  5 41  1  6
  8 42  1  0
  8 43  1  0
  8 44  1  0
  9 45  1  0
  9 46  1  0
  9 47  1  0
 10 48  1  1
 11 49  1  0
 11 50  1  0
 12 51  1  0
 12 52  1  0
 14 53  1  0
 14 54  1  0
 14 55  1  0
 15 56  1  6
 16 57  1  0
 16 58  1  0
 17 59  1  0
 19 60  1  1
 20 61  1  0
 20 62  1  0
 21 63  1  0
 21 64  1  0
 22 65  1  1
 23 66  1  0
 25 67  1  0
 25 68  1  0
 25 69  1  0
 26 70  1  0
 26 71  1  0
 26 72  1  0
 28 73  1  0
 28 74  1  0
 28 75  1  0
 29 76  1  0
 29 77  1  0
 30 78  1  0
 30 79  1  0
 32 80  1  0
 32 81  1  0
 32 82  1  0
M  END
>  <meeko>  (5) 
{"is_sidechain": [false], "intermolecular_energy": 2.731, "internal_energy": -0.839}

$$$$
EPH_relaxed_0001_pdb2pqr_Repair_292_r2_0001_out
     RDKit          3D

 82 86  0  0  0  0  0  0  0  0999 V2000
    2.6010   16.6580    0.3140 C   0  0  0  0  0  0  0  0  0  0  0  0
    2.1580   16.9140   -1.1290 C   0  0  2  0  0  0  0  0  0  0  0  0
    1.3480   18.2190   -1.2660 C   0  0  0  0  0  0  0  0  0  0  0  0
    1.0910   18.9250    0.0680 C   0  0  0  0  0  0  0  0  0  0  0  0
   -0.1100   19.8200   -0.0010 C   0  0  2  0  0  0  0  0  0  0  0  0
   -0.7470   20.0650    1.2590 O   0  0  0  0  0  0  0  0  0  0  0  0
   -1.5230   19.3470    0.2860 C   0  0  0  0  0  0  0  0  0  0  0  0
   -1.8100   17.9270    0.6620 C   0  0  0  0  0  0  0  0  0  0  0  0
   -2.6680   20.1340   -0.2720 C   0  0  0  0  0  0  0  0  0  0  0  0
    1.3360   15.7350   -1.6380 C   0  0  1  0  0  0  0  0  0  0  0  0
    0.8810   15.9150   -3.1100 C   0  0  0  0  0  0  0  0  0  0  0  0
    0.8950   14.5060   -3.7580 C   0  0  0  0  0  0  0  0  0  0  0  0
    1.0310   13.5310   -2.5660 C   0  0  1  0  0  0  0  0  0  0  0  0
   -0.4140   13.3920   -1.9930 C   0  0  0  0  0  0  0  0  0  0  0  0
    1.6630   12.1360   -2.8830 C   0  0  2  0  0  0  0  0  0  0  0  0
    0.8670   11.2700   -3.8750 C   0  0  0  0  0  0  0  0  0  0  0  0
   -0.1420   10.3590   -3.2580 C   0  0  0  0  0  0  0  0  0  0  0  0
   -0.2060   10.0300   -1.9540 C   0  0  0  0  0  0  0  0  0  0  0  0
    0.8630   10.5150   -0.9660 C   0  0  1  0  0  0  0  0  0  0  0  0
    1.3210    9.3300   -0.0760 C   0  0  0  0  0  0  0  0  0  0  0  0
    0.1540    8.6380    0.6220 C   0  0  0  0  0  0  0  0  0  0  0  0
   -0.8580    8.1180   -0.3960 C   0  0  2  0  0  0  0  0  0  0  0  0
   -0.2510    7.0680   -1.1560 O   0  0  0  0  0  0  0  0  0  0  0  0
   -1.3840    9.2210   -1.3560 C   0  0  0  0  0  0  0  0  0  0  0  0
   -2.2970   10.1990   -0.5760 C   0  0  0  0  0  0  0  0  0  0  0  0
   -2.2860    8.5390   -2.4190 C   0  0  0  0  0  0  0  0  0  0  0  0
    2.0850   11.3090   -1.6020 C   0  0  1  0  0  0  0  0  0  0  0  0
    3.1880   10.3080   -2.0620 C   0  0  0  0  0  0  0  0  0  0  0  0
    2.7410   12.2150   -0.4940 C   0  0  0  0  0  0  0  0  0  0  0  0
    2.1500   13.6250   -0.3100 C   0  0  0  0  0  0  0  0  0  0  0  0
    2.0210   14.3460   -1.6550 C   0  0  2  0  0  0  0  0  0  0  0  0
    3.4620   14.5200   -2.2450 C   0  0  0  0  0  0  0  0  0  0  0  0
    1.8608   17.0858    1.0062 H   0  0  0  0  0  0  0  0  0  0  0  0
    2.6809   15.5745    0.4863 H   0  0  0  0  0  0  0  0  0  0  0  0
    3.5796   17.1298    0.4863 H   0  0  0  0  0  0  0  0  0  0  0  0
    3.0669   17.0244   -1.7386 H   0  0  0  0  0  0  0  0  0  0  0  0
    1.9037   18.9058   -1.9213 H   0  0  0  0  0  0  0  0  0  0  0  0
    0.3662   17.9467   -1.6807 H   0  0  0  0  0  0  0  0  0  0  0  0
    0.9259   18.1661    0.8470 H   0  0  0  0  0  0  0  0  0  0  0  0
    1.9684   19.5457    0.3023 H   0  0  0  0  0  0  0  0  0  0  0  0
    0.3246   20.3777   -0.8437 H   0  0  0  0  0  0  0  0  0  0  0  0
   -1.8287   17.8345    1.7579 H   0  0  0  0  0  0  0  0  0  0  0  0
   -2.7865   17.6294    0.2522 H   0  0  0  0  0  0  0  0  0  0  0  0
   -1.0258   17.2735    0.2522 H   0  0  0  0  0  0  0  0  0  0  0  0
   -3.2669   20.5457    0.5537 H   0  0  0  0  0  0  0  0  0  0  0  0
   -2.2804   20.9574   -0.8898 H   0  0  0  0  0  0  0  0  0  0  0  0
   -3.2979   19.4771   -0.8898 H   0  0  0  0  0  0  0  0  0  0  0  0
    0.5224   15.7439   -0.8977 H   0  0  0  0  0  0  0  0  0  0  0  0
   -0.1341   16.3374   -3.1438 H   0  0  0  0  0  0  0  0  0  0  0  0
    1.5484   16.6040   -3.6483 H   0  0  0  0  0  0  0  0  0  0  0  0
   -0.0406   14.3212   -4.3063 H   0  0  0  0  0  0  0  0  0  0  0  0
    1.7101   14.3900   -4.4874 H   0  0  0  0  0  0  0  0  0  0  0  0
   -0.3745   13.3958   -0.8937 H   0  0  0  0  0  0  0  0  0  0  0  0
   -1.0290   14.2351   -2.3407 H   0  0  0  0  0  0  0  0  0  0  0  0
   -0.8570   12.4471   -2.3407 H   0  0  0  0  0  0  0  0  0  0  0  0
    2.5917   12.4106   -3.4046 H   0  0  0  0  0  0  0  0  0  0  0  0
    0.3394   11.9432   -4.5667 H   0  0  0  0  0  0  0  0  0  0  0  0
    1.6029   10.6191   -4.3698 H   0  0  0  0  0  0  0  0  0  0  0  0
   -0.8975    9.9191   -3.9256 H   0  0  0  0  0  0  0  0  0  0  0  0
    0.3780   11.2823   -0.3447 H   0  0  0  0  0  0  0  0  0  0  0  0
    1.8404    8.5945   -0.7079 H   0  0  0  0  0  0  0  0  0  0  0  0
    1.9842    9.7341    0.7030 H   0  0  0  0  0  0  0  0  0  0  0  0
    0.5374    7.7930    1.2128 H   0  0  0  0  0  0  0  0  0  0  0  0
   -0.3474    9.3671    1.2754 H   0  0  0  0  0  0  0  0  0  0  0  0
   -1.7293    7.7492    0.1651 H   0  0  0  0  0  0  0  0  0  0  0  0
   -0.9080    6.7530   -1.7990 H   0  0  0  0  0  0  0  0  0  0  0  0
   -2.1567   10.0487    0.5046 H   0  0  0  0  0  0  0  0  0  0  0  0
   -2.0349   11.2344   -0.8393 H   0  0  0  0  0  0  0  0  0  0  0  0
   -3.3479   10.0086   -0.8393 H   0  0  0  0  0  0  0  0  0  0  0  0
   -3.0657    7.9495   -1.9145 H   0  0  0  0  0  0  0  0  0  0  0  0
   -2.7575    9.3085   -3.0480 H   0  0  0  0  0  0  0  0  0  0  0  0
   -1.6741    7.8757   -3.0480 H   0  0  0  0  0  0  0  0  0  0  0  0
    3.6740    9.8669   -1.1793 H   0  0  0  0  0  0  0  0  0  0  0  0
    2.7305    9.5103   -2.6657 H   0  0  0  0  0  0  0  0  0  0  0  0
    3.9377   10.8405   -2.6657 H   0  0  0  0  0  0  0  0  0  0  0  0
    2.6469   11.6869    0.4663 H   0  0  0  0  0  0  0  0  0  0  0  0
    3.7753   12.3783   -0.8311 H   0  0  0  0  0  0  0  0  0  0  0  0
    1.1543   13.5405    0.1498 H   0  0  0  0  0  0  0  0  0  0  0  0
    2.8247   14.2062    0.3358 H   0  0  0  0  0  0  0  0  0  0  0  0
    4.1869   14.6075   -1.4223 H   0  0  0  0  0  0  0  0  0  0  0  0
    3.7130   13.6456   -2.8634 H   0  0  0  0  0  0  0  0  0  0  0  0
    3.4977   15.4290   -2.8634 H   0  0  0  0  0  0  0  0  0  0  0  0
  1  2  1  0
  2  3  1  0
  3  4  1  0
  4  5  1  0
  5  6  1  0
  6  7  1  0
  7  8  1  0
  7  9  1  0
  2 10  1  0
 10 11  1  0
 11 12  1  0
 12 13  1  0
 13 14  1  1
 13 15  1  0
 15 16  1  0
 16 17  1  0
 17 18  2  0
 18 19  1  0
 19 20  1  0
 20 21  1  0
 21 22  1  0
 22 23  1  0
 22 24  1  0
 24 25  1  0
 24 26  1  0
 19 27  1  0
 27 28  1  6
 27 29  1  0
 29 30  1  0
 30 31  1  0
 31 32  1  6
  7  5  1  0
 31 10  1  0
 31 13  1  0
 27 15  1  0
 24 18  1  0
  1 33  1  0
  1 34  1  0
  1 35  1  0
  2 36  1  6
  3 37  1  0
  3 38  1  0
  4 39  1  0
  4 40  1  0
  5 41  1  6
  8 42  1  0
  8 43  1  0
  8 44  1  0
  9 45  1  0
  9 46  1  0
  9 47  1  0
 10 48  1  1
 11 49  1  0
 11 50  1  0
 12 51  1  0
 12 52  1  0
 14 53  1  0
 14 54  1  0
 14 55  1  0
 15 56  1  6
 16 57  1  0
 16 58  1  0
 17 59  1  0
 19 60  1  1
 20 61  1  0
 20 62  1  0
 21 63  1  0
 21 64  1  0
 22 65  1  1
 23 66  1  0
 25 67  1  0
 25 68  1  0
 25 69  1  0
 26 70  1  0
 26 71  1  0
 26 72  1  0
 28 73  1  0
 28 74  1  0
 28 75  1  0
 29 76  1  0
 29 77  1  0
 30 78  1  0
 30 79  1  0
 32 80  1  0
 32 81  1  0
 32 82  1  0
M  END
>  <meeko>  (6) 
{"is_sidechain": [false], "intermolecular_energy": 2.731, "internal_energy": -0.839}

$$$$
EPH_relaxed_0001_pdb2pqr_Repair_292_r2_0001_out
     RDKit          3D

 82 86  0  0  0  0  0  0  0  0999 V2000
   -5.0080    8.5760   -0.5370 C   0  0  0  0  0  0  0  0  0  0  0  0
   -5.3490    7.4640   -1.5330 C   0  0  2  0  0  0  0  0  0  0  0  0
   -4.3490    7.4070   -2.7050 C   0  0  0  0  0  0  0  0  0  0  0  0
   -2.9090    7.1160   -2.2730 C   0  0  0  0  0  0  0  0  0  0  0  0
   -1.9710    8.2040   -2.7010 C   0  0  2  0  0  0  0  0  0  0  0  0
   -0.6050    8.0010   -2.3190 O   0  0  0  0  0  0  0  0  0  0  0  0
   -1.2660    9.1310   -1.7280 C   0  0  0  0  0  0  0  0  0  0  0  0
   -1.4700    9.0130   -0.2500 C   0  0  0  0  0  0  0  0  0  0  0  0
   -0.7690   10.4510   -2.2300 C   0  0  0  0  0  0  0  0  0  0  0  0
   -6.7640    7.6570   -2.0640 C   0  0  1  0  0  0  0  0  0  0  0  0
   -6.9930    6.9490   -3.4260 C   0  0  0  0  0  0  0  0  0  0  0  0
   -8.4590    6.4450   -3.4270 C   0  0  0  0  0  0  0  0  0  0  0  0
   -9.1180    7.1590   -2.2240 C   0  0  1  0  0  0  0  0  0  0  0  0
   -9.4760    8.5850   -2.7500 C   0  0  0  0  0  0  0  0  0  0  0  0
  -10.3600    6.4480   -1.5940 C   0  0  2  0  0  0  0  0  0  0  0  0
  -11.5690    6.2920   -2.5330 C   0  0  0  0  0  0  0  0  0  0  0  0
  -12.5490    7.4170   -2.5030 C   0  0  0  0  0  0  0  0  0  0  0  0
  -12.6180    8.3700   -1.5550 C   0  0  0  0  0  0  0  0  0  0  0  0
  -11.7080    8.3190   -0.3200 C   0  0  1  0  0  0  0  0  0  0  0  0
  -12.5510    8.5880    0.9550 C   0  0  0  0  0  0  0  0  0  0  0  0
  -13.3450    9.8880    0.8680 C   0  0  0  0  0  0  0  0  0  0  0  0
  -14.2800    9.8760   -0.3390 C   0  0  2  0  0  0  0  0  0  0  0  0
  -15.2870    8.8810   -0.1320 O   0  0  0  0  0  0  0  0  0  0  0  0
  -13.5440    9.6050   -1.6810 C   0  0  0  0  0  0  0  0  0  0  0  0
  -12.6730   10.8300   -2.0540 C   0  0  0  0  0  0  0  0  0  0  0  0
  -14.6170    9.4790   -2.7960 C   0  0  0  0  0  0  0  0  0  0  0  0
  -10.7930    7.0270   -0.1860 C   0  0  1  0  0  0  0  0  0  0  0  0
  -11.5780    5.8920    0.5400 C   0  0  0  0  0  0  0  0  0  0  0  0
   -9.5560    7.3660    0.7280 C   0  0  0  0  0  0  0  0  0  0  0  0
   -8.3160    7.9550    0.0290 C   0  0  0  0  0  0  0  0  0  0  0  0
   -7.9290    7.1200   -1.1960 C   0  0  2  0  0  0  0  0  0  0  0  0
   -7.5430    5.6860   -0.6950 C   0  0  0  0  0  0  0  0  0  0  0  0
   -5.1241    8.1973    0.4892 H   0  0  0  0  0  0  0  0  0  0  0  0
   -3.9688    8.9014   -0.6924 H   0  0  0  0  0  0  0  0  0  0  0  0
   -5.6861    9.4280   -0.6924 H   0  0  0  0  0  0  0  0  0  0  0  0
   -5.2817    6.5067   -0.9953 H   0  0  0  0  0  0  0  0  0  0  0  0
   -4.6705    6.6150   -3.3974 H   0  0  0  0  0  0  0  0  0  0  0  0
   -4.3484    8.4014   -3.1753 H   0  0  0  0  0  0  0  0  0  0  0  0
   -2.8765    7.0281   -1.1770 H   0  0  0  0  0  0  0  0  0  0  0  0
   -2.5896    6.1794   -2.7533 H   0  0  0  0  0  0  0  0  0  0  0  0
   -2.5698    8.3981   -3.6031 H   0  0  0  0  0  0  0  0  0  0  0  0
   -0.6334    9.4969    0.2754 H   0  0  0  0  0  0  0  0  0  0  0  0
   -2.4129    9.5051    0.0304 H   0  0  0  0  0  0  0  0  0  0  0  0
   -1.5135    7.9502    0.0304 H   0  0  0  0  0  0  0  0  0  0  0  0
   -0.5247   11.0997   -1.3759 H   0  0  0  0  0  0  0  0  0  0  0  0
    0.1320   10.2951   -2.8415 H   0  0  0  0  0  0  0  0  0  0  0  0
   -1.5491   10.9280   -2.8415 H   0  0  0  0  0  0  0  0  0  0  0  0
   -6.7983    8.7558   -2.1011 H   0  0  0  0  0  0  0  0  0  0  0  0
   -6.8355    7.6576   -4.2525 H   0  0  0  0  0  0  0  0  0  0  0  0
   -6.2885    6.1151   -3.5611 H   0  0  0  0  0  0  0  0  0  0  0  0
   -8.9633    6.7194   -4.3653 H   0  0  0  0  0  0  0  0  0  0  0  0
   -8.5235    5.3497   -3.3484 H   0  0  0  0  0  0  0  0  0  0  0  0
   -9.6451    9.2587   -1.8970 H   0  0  0  0  0  0  0  0  0  0  0  0
   -8.6464    8.9691   -3.3618 H   0  0  0  0  0  0  0  0  0  0  0  0
  -10.3886    8.5317   -3.3618 H   0  0  0  0  0  0  0  0  0  0  0  0
   -9.9845    5.4290   -1.4189 H   0  0  0  0  0  0  0  0  0  0  0  0
  -11.1906    6.1983   -3.5616 H   0  0  0  0  0  0  0  0  0  0  0  0
  -12.1146    5.4038   -2.1815 H   0  0  0  0  0  0  0  0  0  0  0  0
  -13.2770    7.4721   -3.3258 H   0  0  0  0  0  0  0  0  0  0  0  0
  -10.9673    9.1211   -0.4539 H   0  0  0  0  0  0  0  0  0  0  0  0
  -13.2544    7.7539    1.0951 H   0  0  0  0  0  0  0  0  0  0  0  0
  -11.8554    8.6777    1.8024 H   0  0  0  0  0  0  0  0  0  0  0  0
  -13.9415   10.0076    1.7844 H   0  0  0  0  0  0  0  0  0  0  0  0
  -12.6389   10.7242    0.7571 H   0  0  0  0  0  0  0  0  0  0  0  0
  -14.7244   10.8787   -0.4226 H   0  0  0  0  0  0  0  0  0  0  0  0
  -16.1450    9.2810   -0.3530 H   0  0  0  0  0  0  0  0  0  0  0  0
  -12.3220   11.3236   -1.1357 H   0  0  0  0  0  0  0  0  0  0  0  0
  -11.8072   10.4978   -2.6456 H   0  0  0  0  0  0  0  0  0  0  0  0
  -13.2711   11.5387   -2.6456 H   0  0  0  0  0  0  0  0  0  0  0  0
  -15.6101    9.3624   -2.3376 H   0  0  0  0  0  0  0  0  0  0  0  0
  -14.6053   10.3847   -3.4202 H   0  0  0  0  0  0  0  0  0  0  0  0
  -14.3958    8.6007   -3.4202 H   0  0  0  0  0  0  0  0  0  0  0  0
  -11.4879    6.0222    1.6285 H   0  0  0  0  0  0  0  0  0  0  0  0
  -12.6386    5.9374    0.2518 H   0  0  0  0  0  0  0  0  0  0  0  0
  -11.1612    4.9157    0.2518 H   0  0  0  0  0  0  0  0  0  0  0  0
   -9.8894    8.0935    1.4827 H   0  0  0  0  0  0  0  0  0  0  0  0
   -9.2249    6.3989    1.1342 H   0  0  0  0  0  0  0  0  0  0  0  0
   -8.5383    8.9833   -0.2920 H   0  0  0  0  0  0  0  0  0  0  0  0
   -7.4759    7.9466    0.7390 H   0  0  0  0  0  0  0  0  0  0  0  0
   -7.5389    5.6706    0.4049 H   0  0  0  0  0  0  0  0  0  0  0  0
   -8.2769    4.9570   -1.0691 H   0  0  0  0  0  0  0  0  0  0  0  0
   -6.5423    5.4239   -1.0691 H   0  0  0  0  0  0  0  0  0  0  0  0
  1  2  1  0
  2  3  1  0
  3  4  1  0
  4  5  1  0
  5  6  1  0
  6  7  1  0
  7  8  1  0
  7  9  1  0
  2 10  1  0
 10 11  1  0
 11 12  1  0
 12 13  1  0
 13 14  1  6
 13 15  1  0
 15 16  1  0
 16 17  1  0
 17 18  2  0
 18 19  1  0
 19 20  1  0
 20 21  1  0
 21 22  1  0
 22 23  1  0
 22 24  1  0
 24 25  1  0
 24 26  1  0
 19 27  1  0
 27 28  1  1
 27 29  1  0
 29 30  1  0
 30 31  1  0
 31 32  1  1
  7  5  1  0
 31 10  1  0
 31 13  1  0
 27 15  1  0
 24 18  1  0
  1 33  1  0
  1 34  1  0
  1 35  1  0
  2 36  1  1
  3 37  1  0
  3 38  1  0
  4 39  1  0
  4 40  1  0
  5 41  1  6
  8 42  1  0
  8 43  1  0
  8 44  1  0
  9 45  1  0
  9 46  1  0
  9 47  1  0
 10 48  1  6
 11 49  1  0
 11 50  1  0
 12 51  1  0
 12 52  1  0
 14 53  1  0
 14 54  1  0
 14 55  1  0
 15 56  1  1
 16 57  1  0
 16 58  1  0
 17 59  1  0
 19 60  1  6
 20 61  1  0
 20 62  1  0
 21 63  1  0
 21 64  1  0
 22 65  1  6
 23 66  1  0
 25 67  1  0
 25 68  1  0
 25 69  1  0
 26 70  1  0
 26 71  1  0
 26 72  1  0
 28 73  1  0
 28 74  1  0
 28 75  1  0
 29 76  1  0
 29 77  1  0
 30 78  1  0
 30 79  1  0
 32 80  1  0
 32 81  1  0
 32 82  1  0
M  END
>  <meeko>  (7) 
{"is_sidechain": [false], "intermolecular_energy": 2.731, "internal_energy": -0.839}

$$$$
EPH_relaxed_0001_pdb2pqr_Repair_292_r2_0001_out
     RDKit          3D

 82 86  0  0  0  0  0  0  0  0999 V2000
   -3.7460    7.2070   -3.3990 C   0  0  0  0  0  0  0  0  0  0  0  0
   -3.7750    7.2930   -1.8700 C   0  0  2  0  0  0  0  0  0  0  0  0
   -5.1930    7.0820   -1.3030 C   0  0  0  0  0  0  0  0  0  0  0  0
   -6.3060    7.3040   -2.3300 C   0  0  0  0  0  0  0  0  0  0  0  0
   -7.6370    7.5030   -1.6700 C   0  0  2  0  0  0  0  0  0  0  0  0
   -8.2130    6.3150   -1.1130 O   0  0  0  0  0  0  0  0  0  0  0  0
   -8.9310    6.9150   -2.2030 C   0  0  0  0  0  0  0  0  0  0  0  0
   -8.9560    6.0840   -3.4470 C   0  0  0  0  0  0  0  0  0  0  0  0
  -10.2250    7.5480   -1.7960 C   0  0  0  0  0  0  0  0  0  0  0  0
   -3.2270    8.6400   -1.4150 C   0  0  1  0  0  0  0  0  0  0  0  0
   -3.8350    9.1080   -0.0660 C   0  0  0  0  0  0  0  0  0  0  0  0
   -2.7140    9.8630    0.6930 C   0  0  0  0  0  0  0  0  0  0  0  0
   -1.6130   10.0940   -0.3680 C   0  0  1  0  0  0  0  0  0  0  0  0
   -2.0860   11.3460   -1.1710 C   0  0  0  0  0  0  0  0  0  0  0  0
   -0.1570   10.2730    0.1750 C   0  0  2  0  0  0  0  0  0  0  0  0
    0.0550   11.4980    1.0820 C   0  0  0  0  0  0  0  0  0  0  0  0
    0.4640   12.7490    0.3780 C   0  0  0  0  0  0  0  0  0  0  0  0
    0.9290   12.8210   -0.8830 C   0  0  0  0  0  0  0  0  0  0  0  0
    1.1750   11.5490   -1.7050 C   0  0  1  0  0  0  0  0  0  0  0  0
    2.5610   11.6400   -2.3960 C   0  0  0  0  0  0  0  0  0  0  0  0
    2.7200   12.9110   -3.2250 C   0  0  0  0  0  0  0  0  0  0  0  0
    2.5260   14.1540   -2.3600 C   0  0  2  0  0  0  0  0  0  0  0  0
    3.5990   14.2320   -1.4180 O   0  0  0  0  0  0  0  0  0  0  0  0
    1.1660   14.1690   -1.6070 C   0  0  0  0  0  0  0  0  0  0  0  0
    0.0130   14.3880   -2.6170 C   0  0  0  0  0  0  0  0  0  0  0  0
    1.1570   15.4030   -0.6640 C   0  0  0  0  0  0  0  0  0  0  0  0
    0.9650   10.1750   -0.9360 C   0  0  1  0  0  0  0  0  0  0  0  0
    2.2810    9.7680   -0.2040 C   0  0  0  0  0  0  0  0  0  0  0  0
    0.6710    9.0380   -1.9850 C   0  0  0  0  0  0  0  0  0  0  0  0
   -0.8000    8.8310   -2.3910 C   0  0  0  0  0  0  0  0  0  0  0  0
   -1.7020    8.7370   -1.1570 C   0  0  2  0  0  0  0  0  0  0  0  0
   -1.2640    7.4740   -0.3400 C   0  0  0  0  0  0  0  0  0  0  0  0
   -3.4083    6.2054   -3.7036 H   0  0  0  0  0  0  0  0  0  0  0  0
   -4.7555    7.3899   -3.7958 H   0  0  0  0  0  0  0  0  0  0  0  0
   -3.0534    7.9639   -3.7958 H   0  0  0  0  0  0  0  0  0  0  0  0
   -3.1406    6.4830   -1.4810 H   0  0  0  0  0  0  0  0  0  0  0  0
   -5.2671    6.0505   -0.9282 H   0  0  0  0  0  0  0  0  0  0  0  0
   -5.3356    7.8289   -0.5081 H   0  0  0  0  0  0  0  0  0  0  0  0
   -6.0672    8.1963   -2.9273 H   0  0  0  0  0  0  0  0  0  0  0  0
   -6.3690    6.4091   -2.9665 H   0  0  0  0  0  0  0  0  0  0  0  0
   -7.3599    8.5231   -1.3655 H   0  0  0  0  0  0  0  0  0  0  0  0
   -8.9881    5.0185   -3.1756 H   0  0  0  0  0  0  0  0  0  0  0  0
   -9.8469    6.3383   -4.0400 H   0  0  0  0  0  0  0  0  0  0  0  0
   -8.0514    6.2843   -4.0400 H   0  0  0  0  0  0  0  0  0  0  0  0
  -10.2887    7.5791   -0.6983 H   0  0  0  0  0  0  0  0  0  0  0  0
  -10.2739    8.5718   -2.1953 H   0  0  0  0  0  0  0  0  0  0  0  0
  -11.0633    6.9582   -2.1953 H   0  0  0  0  0  0  0  0  0  0  0  0
   -3.5017    9.2539   -2.2854 H   0  0  0  0  0  0  0  0  0  0  0  0
   -4.6876    9.7790   -0.2475 H   0  0  0  0  0  0  0  0  0  0  0  0
   -4.2008    8.2520    0.5200 H   0  0  0  0  0  0  0  0  0  0  0  0
   -3.0862   10.8223    1.0818 H   0  0  0  0  0  0  0  0  0  0  0  0
   -2.3447    9.2984    1.5618 H   0  0  0  0  0  0  0  0  0  0  0  0
   -2.3857   12.1393   -0.4703 H   0  0  0  0  0  0  0  0  0  0  0  0
   -1.2626   11.7080   -1.8043 H   0  0  0  0  0  0  0  0  0  0  0  0
   -2.9430   11.0731   -1.8043 H   0  0  0  0  0  0  0  0  0  0  0  0
   -0.0382    9.3949    0.8269 H   0  0  0  0  0  0  0  0  0  0  0  0
   -0.8894   11.6980    1.6095 H   0  0  0  0  0  0  0  0  0  0  0  0
    0.8879   11.2398    1.7526 H   0  0  0  0  0  0  0  0  0  0  0  0
    0.3781   13.6923    0.9373 H   0  0  0  0  0  0  0  0  0  0  0  0
    0.3802   11.5190   -2.4648 H   0  0  0  0  0  0  0  0  0  0  0  0
    3.3425   11.6240   -1.6220 H   0  0  0  0  0  0  0  0  0  0  0  0
    2.6499   10.7827   -3.0795 H   0  0  0  0  0  0  0  0  0  0  0  0
    3.7287   12.9312   -3.6633 H   0  0  0  0  0  0  0  0  0  0  0  0
    1.9566   12.9116   -4.0170 H   0  0  0  0  0  0  0  0  0  0  0  0
    2.5229   15.0261   -3.0304 H   0  0  0  0  0  0  0  0  0  0  0  0
    3.6260   15.1420   -1.0770 H   0  0  0  0  0  0  0  0  0  0  0  0
   -0.9246   14.5661   -2.0701 H   0  0  0  0  0  0  0  0  0  0  0  0
    0.2399   15.2591   -3.2492 H   0  0  0  0  0  0  0  0  0  0  0  0
   -0.0953   13.4944   -3.2492 H   0  0  0  0  0  0  0  0  0  0  0  0
    1.1595   15.0646    0.3827 H   0  0  0  0  0  0  0  0  0  0  0  0
    2.0507   16.0157   -0.8534 H   0  0  0  0  0  0  0  0  0  0  0  0
    0.2545   16.0026   -0.8534 H   0  0  0  0  0  0  0  0  0  0  0  0
    2.1254    9.8161    0.8839 H   0  0  0  0  0  0  0  0  0  0  0  0
    2.5574    8.7424   -0.4898 H   0  0  0  0  0  0  0  0  0  0  0  0
    3.0882   10.4585   -0.4898 H   0  0  0  0  0  0  0  0  0  0  0  0
    1.2382    9.2726   -2.8978 H   0  0  0  0  0  0  0  0  0  0  0  0
    0.9661    8.1030   -1.4862 H   0  0  0  0  0  0  0  0  0  0  0  0
   -1.1251    9.6800   -3.0103 H   0  0  0  0  0  0  0  0  0  0  0  0
   -0.8787    7.8899   -2.9551 H   0  0  0  0  0  0  0  0  0  0  0  0
   -1.3387    7.6894    0.7361 H   0  0  0  0  0  0  0  0  0  0  0  0
   -1.9215    6.6286   -0.5912 H   0  0  0  0  0  0  0  0  0  0  0  0
   -0.2243    7.2172   -0.5912 H   0  0  0  0  0  0  0  0  0  0  0  0
  1  2  1  0
  2  3  1  0
  3  4  1  0
  4  5  1  0
  5  6  1  0
  6  7  1  0
  7  8  1  0
  7  9  1  0
  2 10  1  0
 10 11  1  0
 11 12  1  0
 12 13  1  0
 13 14  1  6
 13 15  1  0
 15 16  1  0
 16 17  1  0
 17 18  2  0
 18 19  1  0
 19 20  1  0
 20 21  1  0
 21 22  1  0
 22 23  1  0
 22 24  1  0
 24 25  1  0
 24 26  1  0
 19 27  1  0
 27 28  1  1
 27 29  1  0
 29 30  1  0
 30 31  1  0
 31 32  1  1
  7  5  1  0
 31 10  1  0
 31 13  1  0
 27 15  1  0
 24 18  1  0
  1 33  1  0
  1 34  1  0
  1 35  1  0
  2 36  1  1
  3 37  1  0
  3 38  1  0
  4 39  1  0
  4 40  1  0
  5 41  1  1
  8 42  1  0
  8 43  1  0
  8 44  1  0
  9 45  1  0
  9 46  1  0
  9 47  1  0
 10 48  1  6
 11 49  1  0
 11 50  1  0
 12 51  1  0
 12 52  1  0
 14 53  1  0
 14 54  1  0
 14 55  1  0
 15 56  1  1
 16 57  1  0
 16 58  1  0
 17 59  1  0
 19 60  1  6
 20 61  1  0
 20 62  1  0
 21 63  1  0
 21 64  1  0
 22 65  1  6
 23 66  1  0
 25 67  1  0
 25 68  1  0
 25 69  1  0
 26 70  1  0
 26 71  1  0
 26 72  1  0
 28 73  1  0
 28 74  1  0
 28 75  1  0
 29 76  1  0
 29 77  1  0
 30 78  1  0
 30 79  1  0
 32 80  1  0
 32 81  1  0
 32 82  1  0
M  END
>  <meeko>  (8) 
{"is_sidechain": [false], "intermolecular_energy": 2.731, "internal_energy": -0.839}

$$$$
EPH_relaxed_0001_pdb2pqr_Repair_292_r2_0001_out
     RDKit          3D

 82 86  0  0  0  0  0  0  0  0999 V2000
   -0.3250   15.3720   -7.3650 C   0  0  0  0  0  0  0  0  0  0  0  0
    1.0770   15.2390   -6.7620 C   0  0  2  0  0  0  0  0  0  0  0  0
    2.1820   15.3580   -7.8310 C   0  0  0  0  0  0  0  0  0  0  0  0
    2.0790   16.6260   -8.6840 C   0  0  0  0  0  0  0  0  0  0  0  0
    1.6800   16.3140  -10.0940 C   0  0  2  0  0  0  0  0  0  0  0  0
    1.0930   15.0190  -10.2780 O   0  0  0  0  0  0  0  0  0  0  0  0
    2.3500   15.2450  -10.9370 C   0  0  0  0  0  0  0  0  0  0  0  0
    3.4770   14.4200  -10.3990 C   0  0  0  0  0  0  0  0  0  0  0  0
    2.2410   15.3360  -12.4270 C   0  0  0  0  0  0  0  0  0  0  0  0
    1.2030   13.9100   -6.0280 C   0  0  1  0  0  0  0  0  0  0  0  0
    2.6040   13.2630   -6.2000 C   0  0  0  0  0  0  0  0  0  0  0  0
    2.9310   12.5430   -4.8670 C   0  0  0  0  0  0  0  0  0  0  0  0
    1.5880   12.5140   -4.1000 C   0  0  1  0  0  0  0  0  0  0  0  0
    0.8060   11.3070   -4.7060 C   0  0  0  0  0  0  0  0  0  0  0  0
    1.6840   12.4160   -2.5420 C   0  0  2  0  0  0  0  0  0  0  0  0
    2.3480   11.1350   -2.0090 C   0  0  0  0  0  0  0  0  0  0  0  0
    1.4180    9.9980   -1.7420 C   0  0  0  0  0  0  0  0  0  0  0  0
    0.0780   10.0880   -1.6510 C   0  0  0  0  0  0  0  0  0  0  0  0
   -0.6260   11.4490   -1.7240 C   0  0  1  0  0  0  0  0  0  0  0  0
   -1.6780   11.5500   -0.5880 C   0  0  0  0  0  0  0  0  0  0  0  0
   -2.6610   10.3830   -0.5960 C   0  0  0  0  0  0  0  0  0  0  0  0
   -1.9270    9.0510   -0.4620 C   0  0  2  0  0  0  0  0  0  0  0  0
   -1.3330    8.9800    0.8380 O   0  0  0  0  0  0  0  0  0  0  0  0
   -0.8350    8.8420   -1.5480 C   0  0  0  0  0  0  0  0  0  0  0  0
   -1.5070    8.6170   -2.9250 C   0  0  0  0  0  0  0  0  0  0  0  0
   -0.0770    7.5280   -1.2160 C   0  0  0  0  0  0  0  0  0  0  0  0
    0.3260   12.7200   -1.7890 C   0  0  1  0  0  0  0  0  0  0  0  0
    0.7090   13.1720   -0.3460 C   0  0  0  0  0  0  0  0  0  0  0  0
   -0.4610   13.9200   -2.4360 C   0  0  0  0  0  0  0  0  0  0  0  0
   -0.4190   14.0310   -3.9720 C   0  0  0  0  0  0  0  0  0  0  0  0
    1.0180   13.9260   -4.4900 C   0  0  2  0  0  0  0  0  0  0  0  0
    1.8240   15.1400   -3.9150 C   0  0  0  0  0  0  0  0  0  0  0  0
   -1.0669   15.4424   -6.5559 H   0  0  0  0  0  0  0  0  0  0  0  0
   -0.3725   16.2787   -7.9860 H   0  0  0  0  0  0  0  0  0  0  0  0
   -0.5422   14.4904   -7.9860 H   0  0  0  0  0  0  0  0  0  0  0  0
    1.2128   16.0690   -6.0531 H   0  0  0  0  0  0  0  0  0  0  0  0
    3.1578   15.3593   -7.3232 H   0  0  0  0  0  0  0  0  0  0  0  0
    2.0644   14.5020   -8.5118 H   0  0  0  0  0  0  0  0  0  0  0  0
    1.3264   17.2942   -8.2400 H   0  0  0  0  0  0  0  0  0  0  0  0
    3.0684   17.1062   -8.7057 H   0  0  0  0  0  0  0  0  0  0  0  0
    1.4542   17.3728  -10.2886 H   0  0  0  0  0  0  0  0  0  0  0  0
    3.4523   14.4381   -9.2994 H   0  0  0  0  0  0  0  0  0  0  0  0
    3.3730   13.3831  -10.7511 H   0  0  0  0  0  0  0  0  0  0  0  0
    4.4340   14.8325  -10.7511 H   0  0  0  0  0  0  0  0  0  0  0  0
    1.4218   16.0199  -12.6936 H   0  0  0  0  0  0  0  0  0  0  0  0
    3.1862   15.7169  -12.8412 H   0  0  0  0  0  0  0  0  0  0  0  0
    2.0350   14.3380  -12.8412 H   0  0  0  0  0  0  0  0  0  0  0  0
    0.3761   13.3596   -6.5006 H   0  0  0  0  0  0  0  0  0  0  0  0
    2.5876   12.5386   -7.0276 H   0  0  0  0  0  0  0  0  0  0  0  0
    3.3637   14.0230   -6.4350 H   0  0  0  0  0  0  0  0  0  0  0  0
    3.2925   11.5214   -5.0559 H   0  0  0  0  0  0  0  0  0  0  0  0
    3.7241   13.0533   -4.3007 H   0  0  0  0  0  0  0  0  0  0  0  0
    0.4033   10.6855   -3.8927 H   0  0  0  0  0  0  0  0  0  0  0  0
   -0.0220   11.6808   -5.3262 H   0  0  0  0  0  0  0  0  0  0  0  0
    1.4855   10.7040   -5.3262 H   0  0  0  0  0  0  0  0  0  0  0  0
    2.3756   13.2352   -2.2958 H   0  0  0  0  0  0  0  0  0  0  0  0
    3.0880   10.8016   -2.7514 H   0  0  0  0  0  0  0  0  0  0  0  0
    2.7884   11.4024   -1.0371 H   0  0  0  0  0  0  0  0  0  0  0  0
    1.8658    9.0022   -1.6083 H   0  0  0  0  0  0  0  0  0  0  0  0
   -1.1288   11.4786   -2.7019 H   0  0  0  0  0  0  0  0  0  0  0  0
   -1.1532   11.5624    0.3786 H   0  0  0  0  0  0  0  0  0  0  0  0
   -2.2543   12.4733   -0.7474 H   0  0  0  0  0  0  0  0  0  0  0  0
   -3.3600   10.4952    0.2459 H   0  0  0  0  0  0  0  0  0  0  0  0
   -3.2059   10.3892   -1.5515 H   0  0  0  0  0  0  0  0  0  0  0  0
   -2.6678    8.2503   -0.6038 H   0  0  0  0  0  0  0  0  0  0  0  0
   -0.6000    9.6190    0.8610 H   0  0  0  0  0  0  0  0  0  0  0  0
   -2.5405    8.2710   -2.7764 H   0  0  0  0  0  0  0  0  0  0  0  0
   -1.5141    9.5618   -3.4883 H   0  0  0  0  0  0  0  0  0  0  0  0
   -0.9437    7.8584   -3.4883 H   0  0  0  0  0  0  0  0  0  0  0  0
   -0.0088    7.4098   -0.1245 H   0  0  0  0  0  0  0  0  0  0  0  0
   -0.6206    6.6729   -1.6442 H   0  0  0  0  0  0  0  0  0  0  0  0
    0.9354    7.5705   -1.6442 H   0  0  0  0  0  0  0  0  0  0  0  0
    0.1788   12.5463    0.3871 H   0  0  0  0  0  0  0  0  0  0  0  0
    1.7944   13.0636   -0.2038 H   0  0  0  0  0  0  0  0  0  0  0  0
    0.4239   14.2248   -0.2038 H   0  0  0  0  0  0  0  0  0  0  0  0
   -1.5156   13.8255   -2.1380 H   0  0  0  0  0  0  0  0  0  0  0  0
    0.0428   14.8261   -2.0682 H   0  0  0  0  0  0  0  0  0  0  0  0
   -1.0189   13.2186   -4.4080 H   0  0  0  0  0  0  0  0  0  0  0  0
   -0.8265   15.0101   -4.2642 H   0  0  0  0  0  0  0  0  0  0  0  0
    1.8021   15.1070   -2.8157 H   0  0  0  0  0  0  0  0  0  0  0  0
    2.8662   15.0859   -4.2628 H   0  0  0  0  0  0  0  0  0  0  0  0
    1.3697   16.0795   -4.2628 H   0  0  0  0  0  0  0  0  0  0  0  0
  1  2  1  0
  2  3  1  0
  3  4  1  0
  4  5  1  0
  5  6  1  0
  6  7  1  0
  7  8  1  0
  7  9  1  0
  2 10  1  0
 10 11  1  0
 11 12  1  0
 12 13  1  0
 13 14  1  6
 13 15  1  0
 15 16  1  0
 16 17  1  0
 17 18  2  0
 18 19  1  0
 19 20  1  0
 20 21  1  0
 21 22  1  0
 22 23  1  0
 22 24  1  0
 24 25  1  0
 24 26  1  0
 19 27  1  0
 27 28  1  1
 27 29  1  0
 29 30  1  0
 30 31  1  0
 31 32  1  1
  7  5  1  0
 31 10  1  0
 31 13  1  0
 27 15  1  0
 24 18  1  0
  1 33  1  0
  1 34  1  0
  1 35  1  0
  2 36  1  1
  3 37  1  0
  3 38  1  0
  4 39  1  0
  4 40  1  0
  5 41  1  6
  8 42  1  0
  8 43  1  0
  8 44  1  0
  9 45  1  0
  9 46  1  0
  9 47  1  0
 10 48  1  6
 11 49  1  0
 11 50  1  0
 12 51  1  0
 12 52  1  0
 14 53  1  0
 14 54  1  0
 14 55  1  0
 15 56  1  1
 16 57  1  0
 16 58  1  0
 17 59  1  0
 19 60  1  6
 20 61  1  0
 20 62  1  0
 21 63  1  0
 21 64  1  0
 22 65  1  1
 23 66  1  0
 25 67  1  0
 25 68  1  0
 25 69  1  0
 26 70  1  0
 26 71  1  0
 26 72  1  0
 28 73  1  0
 28 74  1  0
 28 75  1  0
 29 76  1  0
 29 77  1  0
 30 78  1  0
 30 79  1  0
 32 80  1  0
 32 81  1  0
 32 82  1  0
M  END
>  <meeko>  (9) 
{"is_sidechain": [false], "intermolecular_energy": 2.731, "internal_energy": -0.839}

$$$$
EPH_relaxed_0001_pdb2pqr_Repair_292_r2_0001_out
     RDKit          3D

 82 86  0  0  0  0  0  0  0  0999 V2000
   -0.9350   16.3380   -5.8890 C   0  0  0  0  0  0  0  0  0  0  0  0
    0.2130   15.6690   -6.6500 C   0  0  2  0  0  0  0  0  0  0  0  0
   -0.1020   15.5090   -8.1510 C   0  0  0  0  0  0  0  0  0  0  0  0
    0.5850   16.5520   -9.0380 C   0  0  0  0  0  0  0  0  0  0  0  0
    1.9580   16.1130   -9.4480 C   0  0  2  0  0  0  0  0  0  0  0  0
    2.4170   16.6630  -10.6900 O   0  0  0  0  0  0  0  0  0  0  0  0
    2.2310   15.2380  -10.6570 C   0  0  0  0  0  0  0  0  0  0  0  0
    1.1210   14.7490  -11.5330 C   0  0  0  0  0  0  0  0  0  0  0  0
    3.5100   14.4620  -10.7050 C   0  0  0  0  0  0  0  0  0  0  0  0
    0.5200   14.3080   -6.0350 C   0  0  1  0  0  0  0  0  0  0  0  0
    1.7240   13.6040   -6.7150 C   0  0  0  0  0  0  0  0  0  0  0  0
    2.4700   12.8210   -5.6040 C   0  0  0  0  0  0  0  0  0  0  0  0
    1.4960   12.8260   -4.4030 C   0  0  1  0  0  0  0  0  0  0  0  0
    0.4800   11.6800   -4.7040 C   0  0  0  0  0  0  0  0  0  0  0  0
    2.1430   12.6670   -2.9880 C   0  0  2  0  0  0  0  0  0  0  0  0
    2.8810   11.3370   -2.7540 C   0  0  0  0  0  0  0  0  0  0  0  0
    2.0470   10.2360   -2.1880 C   0  0  0  0  0  0  0  0  0  0  0  0
    0.8380   10.3850   -1.6150 C   0  0  0  0  0  0  0  0  0  0  0  0
    0.2330   11.7790   -1.4040 C   0  0  1  0  0  0  0  0  0  0  0  0
   -0.3290   11.8870    0.0370 C   0  0  0  0  0  0  0  0  0  0  0  0
   -1.3130   10.7680    0.3670 C   0  0  0  0  0  0  0  0  0  0  0  0
   -0.6570    9.3990    0.2020 C   0  0  2  0  0  0  0  0  0  0  0  0
    0.3620    9.2530    1.1960 O   0  0  0  0  0  0  0  0  0  0  0  0
   -0.0450    9.1790   -1.2100 C   0  0  0  0  0  0  0  0  0  0  0  0
   -1.1810    9.0370   -2.2530 C   0  0  0  0  0  0  0  0  0  0  0  0
    0.7060    7.8210   -1.1980 C   0  0  0  0  0  0  0  0  0  0  0  0
    1.1680   13.0060   -1.7880 C   0  0  1  0  0  0  0  0  0  0  0  0
    2.0720   13.3860   -0.5750 C   0  0  0  0  0  0  0  0  0  0  0  0
    0.2700   14.2640   -2.0840 C   0  0  0  0  0  0  0  0  0  0  0  0
   -0.2400   14.4290   -3.5290 C   0  0  0  0  0  0  0  0  0  0  0  0
    0.9040   14.2770   -4.5350 C   0  0  2  0  0  0  0  0  0  0  0  0
    1.9310   15.4300   -4.2700 C   0  0  0  0  0  0  0  0  0  0  0  0
   -0.7646   16.2387   -4.8068 H   0  0  0  0  0  0  0  0  0  0  0  0
   -0.9804   17.4040   -6.1567 H   0  0  0  0  0  0  0  0  0  0  0  0
   -1.8848   15.8520   -6.1567 H   0  0  0  0  0  0  0  0  0  0  0  0
    1.0932   16.3232   -6.5646 H   0  0  0  0  0  0  0  0  0  0  0  0
    0.2279   14.5095   -8.4707 H   0  0  0  0  0  0  0  0  0  0  0  0
   -1.1865   15.6501   -8.2691 H   0  0  0  0  0  0  0  0  0  0  0  0
   -0.0236   16.7087   -9.9408 H   0  0  0  0  0  0  0  0  0  0  0  0
    0.6809   17.4834   -8.4607 H   0  0  0  0  0  0  0  0  0  0  0  0
    2.2728   16.0375   -8.3967 H   0  0  0  0  0  0  0  0  0  0  0  0
    0.2933   14.3844  -10.9069 H   0  0  0  0  0  0  0  0  0  0  0  0
    0.7647   15.5735  -12.1681 H   0  0  0  0  0  0  0  0  0  0  0  0
    1.4889   13.9296  -12.1681 H   0  0  0  0  0  0  0  0  0  0  0  0
    3.8518   14.2547   -9.6802 H   0  0  0  0  0  0  0  0  0  0  0  0
    3.3432   13.5127  -11.2350 H   0  0  0  0  0  0  0  0  0  0  0  0
    4.2750   15.0484  -11.2350 H   0  0  0  0  0  0  0  0  0  0  0  0
   -0.4511   13.8135   -6.1849 H   0  0  0  0  0  0  0  0  0  0  0  0
    1.3684   12.9120   -7.4926 H   0  0  0  0  0  0  0  0  0  0  0  0
    2.3889   14.3359   -7.1968 H   0  0  0  0  0  0  0  0  0  0  0  0
    2.6807   11.7914   -5.9290 H   0  0  0  0  0  0  0  0  0  0  0  0
    3.4416   13.2729   -5.3554 H   0  0  0  0  0  0  0  0  0  0  0  0
    0.1086   11.2611   -3.7571 H   0  0  0  0  0  0  0  0  0  0  0  0
   -0.3644   12.0814   -5.2835 H   0  0  0  0  0  0  0  0  0  0  0  0
    0.9797   10.8898   -5.2835 H   0  0  0  0  0  0  0  0  0  0  0  0
    2.9220   13.4436   -2.9957 H   0  0  0  0  0  0  0  0  0  0  0  0
    3.2829   10.9968   -3.7198 H   0  0  0  0  0  0  0  0  0  0  0  0
    3.6570   11.5476   -2.0034 H   0  0  0  0  0  0  0  0  0  0  0  0
    2.4551    9.2160   -2.2439 H   0  0  0  0  0  0  0  0  0  0  0  0
   -0.5870   11.8678   -2.1318 H   0  0  0  0  0  0  0  0  0  0  0  0
    0.5098   11.8397    0.7471 H   0  0  0  0  0  0  0  0  0  0  0  0
   -0.8708   12.8413    0.1133 H   0  0  0  0  0  0  0  0  0  0  0  0
   -1.6521   10.8818    1.4072 H   0  0  0  0  0  0  0  0  0  0  0  0
   -2.1657   10.8347   -0.3247 H   0  0  0  0  0  0  0  0  0  0  0  0
   -1.4433    8.6396    0.3248 H   0  0  0  0  0  0  0  0  0  0  0  0
    0.9660    8.5530    0.8970 H   0  0  0  0  0  0  0  0  0  0  0  0
   -2.1430    8.9167   -1.7333 H   0  0  0  0  0  0  0  0  0  0  0  0
   -1.2148    9.9379   -2.8833 H   0  0  0  0  0  0  0  0  0  0  0  0
   -0.9920    8.1555   -2.8833 H   0  0  0  0  0  0  0  0  0  0  0  0
    0.8796    7.5072   -0.1581 H   0  0  0  0  0  0  0  0  0  0  0  0
    0.0994    7.0620   -1.7137 H   0  0  0  0  0  0  0  0  0  0  0  0
    1.6713    7.9313   -1.7137 H   0  0  0  0  0  0  0  0  0  0  0  0
    1.5410   13.1628    0.3621 H   0  0  0  0  0  0  0  0  0  0  0  0
    3.0043   12.8036   -0.6159 H   0  0  0  0  0  0  0  0  0  0  0  0
    2.3082   14.4596   -0.6159 H   0  0  0  0  0  0  0  0  0  0  0  0
   -0.6091   14.2078   -1.4252 H   0  0  0  0  0  0  0  0  0  0  0  0
    0.9230   15.1316   -1.9083 H   0  0  0  0  0  0  0  0  0  0  0  0
   -1.0016   13.6615   -3.7316 H   0  0  0  0  0  0  0  0  0  0  0  0
   -0.6697   15.4359   -3.6363 H   0  0  0  0  0  0  0  0  0  0  0  0
    2.0547   15.5689   -3.1858 H   0  0  0  0  0  0  0  0  0  0  0  0
    2.9004   15.1680   -4.7191 H   0  0  0  0  0  0  0  0  0  0  0  0
    1.5590   16.3627   -4.7191 H   0  0  0  0  0  0  0  0  0  0  0  0
  1  2  1  0
  2  3  1  0
  3  4  1  0
  4  5  1  0
  5  6  1  0
  6  7  1  0
  7  8  1  0
  7  9  1  0
  2 10  1  0
 10 11  1  0
 11 12  1  0
 12 13  1  0
 13 14  1  6
 13 15  1  0
 15 16  1  0
 16 17  1  0
 17 18  2  0
 18 19  1  0
 19 20  1  0
 20 21  1  0
 21 22  1  0
 22 23  1  0
 22 24  1  0
 24 25  1  0
 24 26  1  0
 19 27  1  0
 27 28  1  1
 27 29  1  0
 29 30  1  0
 30 31  1  0
 31 32  1  6
  7  5  1  0
 31 10  1  0
 31 13  1  0
 27 15  1  0
 24 18  1  0
  1 33  1  0
  1 34  1  0
  1 35  1  0
  2 36  1  6
  3 37  1  0
  3 38  1  0
  4 39  1  0
  4 40  1  0
  5 41  1  1
  8 42  1  0
  8 43  1  0
  8 44  1  0
  9 45  1  0
  9 46  1  0
  9 47  1  0
 10 48  1  1
 11 49  1  0
 11 50  1  0
 12 51  1  0
 12 52  1  0
 14 53  1  0
 14 54  1  0
 14 55  1  0
 15 56  1  6
 16 57  1  0
 16 58  1  0
 17 59  1  0
 19 60  1  6
 20 61  1  0
 20 62  1  0
 21 63  1  0
 21 64  1  0
 22 65  1  1
 23 66  1  0
 25 67  1  0
 25 68  1  0
 25 69  1  0
 26 70  1  0
 26 71  1  0
 26 72  1  0
 28 73  1  0
 28 74  1  0
 28 75  1  0
 29 76  1  0
 29 77  1  0
 30 78  1  0
 30 79  1  0
 32 80  1  0
 32 81  1  0
 32 82  1  0
M  END
>  <meeko>  (10) 
{"is_sidechain": [false], "intermolecular_energy": 2.731, "internal_energy": -0.839}

$$$$
EPH_relaxed_0001_pdb2pqr_Repair_292_r2_0001_out
     RDKit          3D

 82 86  0  0  0  0  0  0  0  0999 V2000
   -1.5220    6.8900   -3.1090 C   0  0  0  0  0  0  0  0  0  0  0  0
   -2.7240    7.3830   -2.2990 C   0  0  2  0  0  0  0  0  0  0  0  0
   -4.0150    7.4230   -3.1420 C   0  0  0  0  0  0  0  0  0  0  0  0
   -4.9660    6.2550   -2.8650 C   0  0  0  0  0  0  0  0  0  0  0  0
   -5.9060    6.5610   -1.7380 C   0  0  2  0  0  0  0  0  0  0  0  0
   -6.6940    5.4480   -1.2970 O   0  0  0  0  0  0  0  0  0  0  0  0
   -7.4170    6.5440   -1.8810 C   0  0  0  0  0  0  0  0  0  0  0  0
   -8.0740    6.2140   -3.1840 C   0  0  0  0  0  0  0  0  0  0  0  0
   -8.2370    7.3180   -0.8960 C   0  0  0  0  0  0  0  0  0  0  0  0
   -2.4340    8.7660   -1.7270 C   0  0  1  0  0  0  0  0  0  0  0  0
   -3.2740    9.0760   -0.4590 C   0  0  0  0  0  0  0  0  0  0  0  0
   -2.3790    9.9330    0.4720 C   0  0  0  0  0  0  0  0  0  0  0  0
   -1.1900   10.3650   -0.4180 C   0  0  1  0  0  0  0  0  0  0  0  0
   -1.7230   11.5830   -1.2360 C   0  0  0  0  0  0  0  0  0  0  0  0
    0.1420   10.7070    0.3250 C   0  0  2  0  0  0  0  0  0  0  0  0
    0.0610   11.8990    1.2940 C   0  0  0  0  0  0  0  0  0  0  0  0
    0.3810   13.2290    0.6970 C   0  0  0  0  0  0  0  0  0  0  0  0
    0.9930   13.4290   -0.4850 C   0  0  0  0  0  0  0  0  0  0  0  0
    1.5200   12.2470   -1.3090 C   0  0  1  0  0  0  0  0  0  0  0  0
    2.9590   12.5580   -1.7990 C   0  0  0  0  0  0  0  0  0  0  0  0
    3.0470   13.8800   -2.5540 C   0  0  0  0  0  0  0  0  0  0  0  0
    2.5690   15.0390   -1.6820 C   0  0  2  0  0  0  0  0  0  0  0  0
    3.4880   15.2100   -0.5990 O   0  0  0  0  0  0  0  0  0  0  0  0
    1.1340   14.8330   -1.1220 C   0  0  0  0  0  0  0  0  0  0  0  0
    0.1050   14.9500   -2.2740 C   0  0  0  0  0  0  0  0  0  0  0  0
    0.8290   16.0030   -0.1480 C   0  0  0  0  0  0  0  0  0  0  0  0
    1.4040   10.8180   -0.6230 C   0  0  1  0  0  0  0  0  0  0  0  0
    2.6560   10.5520    0.2680 C   0  0  0  0  0  0  0  0  0  0  0  0
    1.4120    9.7090   -1.7410 C   0  0  0  0  0  0  0  0  0  0  0  0
    0.0490    9.3300   -2.3530 C   0  0  0  0  0  0  0  0  0  0  0  0
   -0.9850    9.0510   -1.2580 C   0  0  2  0  0  0  0  0  0  0  0  0
   -0.4870    7.8160   -0.4330 C   0  0  0  0  0  0  0  0  0  0  0  0
   -0.7265    6.5637   -2.4229 H   0  0  0  0  0  0  0  0  0  0  0  0
   -1.8288    6.0451   -3.7430 H   0  0  0  0  0  0  0  0  0  0  0  0
   -1.1471    7.7070   -3.7430 H   0  0  0  0  0  0  0  0  0  0  0  0
   -2.8859    6.6677   -1.4792 H   0  0  0  0  0  0  0  0  0  0  0  0
   -4.5445    8.3618   -2.9224 H   0  0  0  0  0  0  0  0  0  0  0  0
   -3.7130    7.3491   -4.1972 H   0  0  0  0  0  0  0  0  0  0  0  0
   -5.5525    6.0498   -3.7727 H   0  0  0  0  0  0  0  0  0  0  0  0
   -4.3619    5.3810   -2.5801 H   0  0  0  0  0  0  0  0  0  0  0  0
   -5.2117    7.3109   -1.3310 H   0  0  0  0  0  0  0  0  0  0  0  0
   -9.0421    5.7277   -2.9937 H   0  0  0  0  0  0  0  0  0  0  0  0
   -8.2346    7.1384   -3.7582 H   0  0  0  0  0  0  0  0  0  0  0  0
   -7.4283    5.5332   -3.7582 H   0  0  0  0  0  0  0  0  0  0  0  0
   -7.9417    7.0392    0.1263 H   0  0  0  0  0  0  0  0  0  0  0  0
   -8.0694    8.3949   -1.0453 H   0  0  0  0  0  0  0  0  0  0  0  0
   -9.3024    7.0886   -1.0453 H   0  0  0  0  0  0  0  0  0  0  0  0
   -2.6744    9.3836   -2.6050 H   0  0  0  0  0  0  0  0  0  0  0  0
   -4.1807    9.6353   -0.7328 H   0  0  0  0  0  0  0  0  0  0  0  0
   -3.5906    8.1489    0.0413 H   0  0  0  0  0  0  0  0  0  0  0  0
   -2.9294   10.8122    0.8381 H   0  0  0  0  0  0  0  0  0  0  0  0
   -2.0522    9.3774    1.3634 H   0  0  0  0  0  0  0  0  0  0  0  0
   -2.0661   12.3670   -0.5448 H   0  0  0  0  0  0  0  0  0  0  0  0
   -0.9165   11.9802   -1.8698 H   0  0  0  0  0  0  0  0  0  0  0  0
   -2.5621   11.2601   -1.8698 H   0  0  0  0  0  0  0  0  0  0  0  0
    0.2941    9.8187    0.9556 H   0  0  0  0  0  0  0  0  0  0  0  0
   -0.9629   11.9433    1.6935 H   0  0  0  0  0  0  0  0  0  0  0  0
    0.8266   11.7185    2.0630 H   0  0  0  0  0  0  0  0  0  0  0  0
    0.0922   14.1214    1.2717 H   0  0  0  0  0  0  0  0  0  0  0  0
    0.8446   12.1521   -2.1721 H   0  0  0  0  0  0  0  0  0  0  0  0
    3.6262   12.6056   -0.9258 H   0  0  0  0  0  0  0  0  0  0  0  0
    3.2559   11.7573   -2.4923 H   0  0  0  0  0  0  0  0  0  0  0  0
    4.0919   14.0578   -2.8481 H   0  0  0  0  0  0  0  0  0  0  0  0
    2.4022   13.8203   -3.4432 H   0  0  0  0  0  0  0  0  0  0  0  0
    2.5318   15.9364   -2.3171 H   0  0  0  0  0  0  0  0  0  0  0  0
    4.1190   15.9040   -0.8550 H   0  0  0  0  0  0  0  0  0  0  0  0
   -0.9049   15.0648   -1.8533 H   0  0  0  0  0  0  0  0  0  0  0  0
    0.3461   15.8265   -2.8934 H   0  0  0  0  0  0  0  0  0  0  0  0
    0.1431   14.0417   -2.8934 H   0  0  0  0  0  0  0  0  0  0  0  0
    0.9211   15.6497    0.8897 H   0  0  0  0  0  0  0  0  0  0  0  0
    1.5440   16.8207   -0.3218 H   0  0  0  0  0  0  0  0  0  0  0  0
   -0.1942   16.3675   -0.3218 H   0  0  0  0  0  0  0  0  0  0  0  0
    2.3708   10.6126    1.3286 H   0  0  0  0  0  0  0  0  0  0  0  0
    3.0535    9.5494    0.0519 H   0  0  0  0  0  0  0  0  0  0  0  0
    3.4268   11.3064    0.0519 H   0  0  0  0  0  0  0  0  0  0  0  0
    2.0565   10.0649   -2.5583 H   0  0  0  0  0  0  0  0  0  0  0  0
    1.7661    8.7965   -1.2391 H   0  0  0  0  0  0  0  0  0  0  0  0
   -0.3069   10.1601   -2.9809 H   0  0  0  0  0  0  0  0  0  0  0  0
    0.1763    8.4186   -2.9556 H   0  0  0  0  0  0  0  0  0  0  0  0
   -0.5747    8.0335    0.6417 H   0  0  0  0  0  0  0  0  0  0  0  0
   -1.1013    6.9378   -0.6807 H   0  0  0  0  0  0  0  0  0  0  0  0
    0.5647    7.6095   -0.6807 H   0  0  0  0  0  0  0  0  0  0  0  0
  1  2  1  0
  2  3  1  0
  3  4  1  0
  4  5  1  0
  5  6  1  0
  6  7  1  0
  7  8  1  0
  7  9  1  0
  2 10  1  0
 10 11  1  0
 11 12  1  0
 12 13  1  0
 13 14  1  6
 13 15  1  0
 15 16  1  0
 16 17  1  0
 17 18  2  0
 18 19  1  0
 19 20  1  0
 20 21  1  0
 21 22  1  0
 22 23  1  0
 22 24  1  0
 24 25  1  0
 24 26  1  0
 19 27  1  0
 27 28  1  1
 27 29  1  0
 29 30  1  0
 30 31  1  0
 31 32  1  1
  7  5  1  0
 31 10  1  0
 31 13  1  0
 27 15  1  0
 24 18  1  0
  1 33  1  0
  1 34  1  0
  1 35  1  0
  2 36  1  1
  3 37  1  0
  3 38  1  0
  4 39  1  0
  4 40  1  0
  5 41  1  1
  8 42  1  0
  8 43  1  0
  8 44  1  0
  9 45  1  0
  9 46  1  0
  9 47  1  0
 10 48  1  6
 11 49  1  0
 11 50  1  0
 12 51  1  0
 12 52  1  0
 14 53  1  0
 14 54  1  0
 14 55  1  0
 15 56  1  1
 16 57  1  0
 16 58  1  0
 17 59  1  0
 19 60  1  6
 20 61  1  0
 20 62  1  0
 21 63  1  0
 21 64  1  0
 22 65  1  6
 23 66  1  0
 25 67  1  0
 25 68  1  0
 25 69  1  0
 26 70  1  0
 26 71  1  0
 26 72  1  0
 28 73  1  0
 28 74  1  0
 28 75  1  0
 29 76  1  0
 29 77  1  0
 30 78  1  0
 30 79  1  0
 32 80  1  0
 32 81  1  0
 32 82  1  0
M  END
>  <meeko>  (11) 
{"is_sidechain": [false], "intermolecular_energy": 2.731, "internal_energy": -0.839}

$$$$
EPH_relaxed_0001_pdb2pqr_Repair_292_r2_0001_out
     RDKit          3D

 82 86  0  0  0  0  0  0  0  0999 V2000
   -0.2180   17.2960   -2.1770 C   0  0  0  0  0  0  0  0  0  0  0  0
   -0.2960   16.4730   -0.8880 C   0  0  2  0  0  0  0  0  0  0  0  0
   -0.1870   17.3560    0.3710 C   0  0  0  0  0  0  0  0  0  0  0  0
    0.3020   18.7780    0.0860 C   0  0  0  0  0  0  0  0  0  0  0  0
    1.5280   19.1130    0.8820 C   0  0  2  0  0  0  0  0  0  0  0  0
    2.3980   20.0710    0.2660 O   0  0  0  0  0  0  0  0  0  0  0  0
    2.9340   18.7500    0.4440 C   0  0  0  0  0  0  0  0  0  0  0  0
    3.1890   18.0190   -0.8360 C   0  0  0  0  0  0  0  0  0  0  0  0
    4.0090   18.6710    1.4830 C   0  0  0  0  0  0  0  0  0  0  0  0
    0.8010   15.4150   -0.8800 C   0  0  1  0  0  0  0  0  0  0  0  0
    0.9470   14.7170    0.4990 C   0  0  0  0  0  0  0  0  0  0  0  0
    1.3290   13.2420    0.2150 C   0  0  0  0  0  0  0  0  0  0  0  0
    1.7140   13.2200   -1.2830 C   0  0  1  0  0  0  0  0  0  0  0  0
    3.1840   13.7410   -1.3280 C   0  0  0  0  0  0  0  0  0  0  0  0
    1.5660   11.8460   -2.0140 C   0  0  2  0  0  0  0  0  0  0  0  0
    2.4610   10.7180   -1.4710 C   0  0  0  0  0  0  0  0  0  0  0  0
    3.8010   10.6000   -2.1170 C   0  0  0  0  0  0  0  0  0  0  0  0
    4.1630   11.1750   -3.2790 C   0  0  0  0  0  0  0  0  0  0  0  0
    3.1470   11.9610   -4.1190 C   0  0  1  0  0  0  0  0  0  0  0  0
    3.2620   11.5320   -5.6050 C   0  0  0  0  0  0  0  0  0  0  0  0
    4.6850   11.6590   -6.1420 C   0  0  0  0  0  0  0  0  0  0  0  0
    5.6560   10.8190   -5.3170 C   0  0  2  0  0  0  0  0  0  0  0  0
    5.3470    9.4350   -5.5100 O   0  0  0  0  0  0  0  0  0  0  0  0
    5.6210   11.1550   -3.8000 C   0  0  0  0  0  0  0  0  0  0  0  0
    6.2420   12.5540   -3.5620 C   0  0  0  0  0  0  0  0  0  0  0  0
    6.5400   10.1420   -3.0650 C   0  0  0  0  0  0  0  0  0  0  0  0
    1.6470   11.9390   -3.5920 C   0  0  1  0  0  0  0  0  0  0  0  0
    0.9050   10.6860   -4.1510 C   0  0  0  0  0  0  0  0  0  0  0  0
    0.8850   13.1950   -4.1570 C   0  0  0  0  0  0  0  0  0  0  0  0
    0.9710   14.4910   -3.3280 C   0  0  0  0  0  0  0  0  0  0  0  0
    0.6460   14.2220   -1.8550 C   0  0  2  0  0  0  0  0  0  0  0  0
   -0.8350   13.7170   -1.7770 C   0  0  0  0  0  0  0  0  0  0  0  0
   -0.1170   18.3621   -1.9258 H   0  0  0  0  0  0  0  0  0  0  0  0
    0.6536   16.9738   -2.7656 H   0  0  0  0  0  0  0  0  0  0  0  0
   -1.1346   17.1433   -2.7656 H   0  0  0  0  0  0  0  0  0  0  0  0
   -1.2818   15.9856   -0.8647 H   0  0  0  0  0  0  0  0  0  0  0  0
   -1.1807   17.4179    0.8386 H   0  0  0  0  0  0  0  0  0  0  0  0
    0.5586   16.8860    1.0291 H   0  0  0  0  0  0  0  0  0  0  0  0
    0.5372   18.8661   -0.9849 H   0  0  0  0  0  0  0  0  0  0  0  0
   -0.4956   19.4789    0.3735 H   0  0  0  0  0  0  0  0  0  0  0  0
    0.9863   18.9575    1.8266 H   0  0  0  0  0  0  0  0  0  0  0  0
    3.5438   17.0019   -0.6130 H   0  0  0  0  0  0  0  0  0  0  0  0
    2.2573   17.9629   -1.4181 H   0  0  0  0  0  0  0  0  0  0  0  0
    3.9534   18.5546   -1.4181 H   0  0  0  0  0  0  0  0  0  0  0  0
    3.5545   18.7044    2.4841 H   0  0  0  0  0  0  0  0  0  0  0  0
    4.5654   17.7295    1.3641 H   0  0  0  0  0  0  0  0  0  0  0  0
    4.6970   19.5210    1.3641 H   0  0  0  0  0  0  0  0  0  0  0  0
    1.6582   16.0360   -1.1792 H   0  0  0  0  0  0  0  0  0  0  0  0
    1.7360   15.2058    1.0894 H   0  0  0  0  0  0  0  0  0  0  0  0
    0.0115   14.7791    1.0743 H   0  0  0  0  0  0  0  0  0  0  0  0
    2.1808   12.9343    0.8394 H   0  0  0  0  0  0  0  0  0  0  0  0
    0.5081   12.5468    0.4449 H   0  0  0  0  0  0  0  0  0  0  0  0
    3.5576   13.8734   -0.3019 H   0  0  0  0  0  0  0  0  0  0  0  0
    3.8154   13.0119   -1.8569 H   0  0  0  0  0  0  0  0  0  0  0  0
    3.2153   14.7050   -1.8569 H   0  0  0  0  0  0  0  0  0  0  0  0
    0.5349   11.5559   -1.7638 H   0  0  0  0  0  0  0  0  0  0  0  0
    2.6162   10.8948   -0.3965 H   0  0  0  0  0  0  0  0  0  0  0  0
    1.9333    9.7783   -1.6914 H   0  0  0  0  0  0  0  0  0  0  0  0
    4.5572    9.9914   -1.5996 H   0  0  0  0  0  0  0  0  0  0  0  0
    3.4208   13.0212   -4.0141 H   0  0  0  0  0  0  0  0  0  0  0  0
    2.9434   10.4830   -5.6949 H   0  0  0  0  0  0  0  0  0  0  0  0
    2.6207   12.2018   -6.1967 H   0  0  0  0  0  0  0  0  0  0  0  0
    4.7079   11.3140   -7.1862 H   0  0  0  0  0  0  0  0  0  0  0  0
    4.9915   12.7135   -6.0787 H   0  0  0  0  0  0  0  0  0  0  0  0
    6.6727   11.0520   -5.6665 H   0  0  0  0  0  0  0  0  0  0  0  0
    4.4750    9.3850   -5.9380 H   0  0  0  0  0  0  0  0  0  0  0  0
    6.3243   12.7395   -2.4809 H   0  0  0  0  0  0  0  0  0  0  0  0
    7.2422   12.5936   -4.0181 H   0  0  0  0  0  0  0  0  0  0  0  0
    5.6004   13.3224   -4.0181 H   0  0  0  0  0  0  0  0  0  0  0  0
    6.4272   10.2664   -1.9779 H   0  0  0  0  0  0  0  0  0  0  0  0
    6.2567    9.1175   -3.3482 H   0  0  0  0  0  0  0  0  0  0  0  0
    7.5871   10.3245   -3.3482 H   0  0  0  0  0  0  0  0  0  0  0  0
    0.5412   10.0717   -3.3142 H   0  0  0  0  0  0  0  0  0  0  0  0
    0.0525   11.0090   -4.7665 H   0  0  0  0  0  0  0  0  0  0  0  0
    1.5981   10.0937   -4.7665 H   0  0  0  0  0  0  0  0  0  0  0  0
    1.2936   13.4108   -5.1552 H   0  0  0  0  0  0  0  0  0  0  0  0
   -0.1789   12.9157   -4.1447 H   0  0  0  0  0  0  0  0  0  0  0  0
    1.9897   14.8993   -3.4031 H   0  0  0  0  0  0  0  0  0  0  0  0
    0.2382   15.2097   -3.7234 H   0  0  0  0  0  0  0  0  0  0  0  0
   -1.1327   13.6155   -0.7229 H   0  0  0  0  0  0  0  0  0  0  0  0
   -1.4959   14.4406   -2.2766 H   0  0  0  0  0  0  0  0  0  0  0  0
   -0.9162   12.7404   -2.2766 H   0  0  0  0  0  0  0  0  0  0  0  0
  1  2  1  0
  2  3  1  0
  3  4  1  0
  4  5  1  0
  5  6  1  0
  6  7  1  0
  7  8  1  0
  7  9  1  0
  2 10  1  0
 10 11  1  0
 11 12  1  0
 12 13  1  0
 13 14  1  1
 13 15  1  0
 15 16  1  0
 16 17  1  0
 17 18  2  0
 18 19  1  0
 19 20  1  0
 20 21  1  0
 21 22  1  0
 22 23  1  0
 22 24  1  0
 24 25  1  0
 24 26  1  0
 19 27  1  0
 27 28  1  6
 27 29  1  0
 29 30  1  0
 30 31  1  0
 31 32  1  6
  7  5  1  0
 31 10  1  0
 31 13  1  0
 27 15  1  0
 24 18  1  0
  1 33  1  0
  1 34  1  0
  1 35  1  0
  2 36  1  1
  3 37  1  0
  3 38  1  0
  4 39  1  0
  4 40  1  0
  5 41  1  1
  8 42  1  0
  8 43  1  0
  8 44  1  0
  9 45  1  0
  9 46  1  0
  9 47  1  0
 10 48  1  6
 11 49  1  0
 11 50  1  0
 12 51  1  0
 12 52  1  0
 14 53  1  0
 14 54  1  0
 14 55  1  0
 15 56  1  6
 16 57  1  0
 16 58  1  0
 17 59  1  0
 19 60  1  6
 20 61  1  0
 20 62  1  0
 21 63  1  0
 21 64  1  0
 22 65  1  6
 23 66  1  0
 25 67  1  0
 25 68  1  0
 25 69  1  0
 26 70  1  0
 26 71  1  0
 26 72  1  0
 28 73  1  0
 28 74  1  0
 28 75  1  0
 29 76  1  0
 29 77  1  0
 30 78  1  0
 30 79  1  0
 32 80  1  0
 32 81  1  0
 32 82  1  0
M  END
>  <meeko>  (12) 
{"is_sidechain": [false], "intermolecular_energy": 2.731, "internal_energy": -0.839}

$$$$
EPH_relaxed_0001_pdb2pqr_Repair_292_r2_0001_out
     RDKit          3D

 82 86  0  0  0  0  0  0  0  0999 V2000
    2.3630   16.8810   -7.2250 C   0  0  0  0  0  0  0  0  0  0  0  0
    1.4290   15.6690   -7.1570 C   0  0  2  0  0  0  0  0  0  0  0  0
    0.1660   15.8610   -8.0200 C   0  0  0  0  0  0  0  0  0  0  0  0
    0.4660   16.2140   -9.4800 C   0  0  0  0  0  0  0  0  0  0  0  0
    1.8850   15.9020   -9.8450 C   0  0  2  0  0  0  0  0  0  0  0  0
    2.3350   16.5020  -11.0670 O   0  0  0  0  0  0  0  0  0  0  0  0
    2.2740   15.0660  -11.0510 C   0  0  0  0  0  0  0  0  0  0  0  0
    1.2410   14.4900  -11.9670 C   0  0  0  0  0  0  0  0  0  0  0  0
    3.6180   14.4070  -11.0600 C   0  0  0  0  0  0  0  0  0  0  0  0
    1.0340   15.3980   -5.7100 C   0  0  1  0  0  0  0  0  0  0  0  0
   -0.3230   16.0470   -5.3290 C   0  0  0  0  0  0  0  0  0  0  0  0
   -1.0150   15.0830   -4.3310 C   0  0  0  0  0  0  0  0  0  0  0  0
    0.0940   14.0880   -3.9170 C   0  0  1  0  0  0  0  0  0  0  0  0
    0.9140   14.8350   -2.8200 C   0  0  0  0  0  0  0  0  0  0  0  0
   -0.3870   12.6840   -3.4230 C   0  0  2  0  0  0  0  0  0  0  0  0
   -1.2490   12.7010   -2.1490 C   0  0  0  0  0  0  0  0  0  0  0  0
   -0.4940   12.5830   -0.8670 C   0  0  0  0  0  0  0  0  0  0  0  0
    0.7860   12.1830   -0.7470 C   0  0  0  0  0  0  0  0  0  0  0  0
    1.5800   11.7050   -1.9690 C   0  0  1  0  0  0  0  0  0  0  0  0
    2.3260   10.3910   -1.6210 C   0  0  0  0  0  0  0  0  0  0  0  0
    3.1970   10.5250   -0.3760 C   0  0  0  0  0  0  0  0  0  0  0  0
    2.3620   10.9450    0.8310 C   0  0  2  0  0  0  0  0  0  0  0  0
    1.4640    9.8810    1.1640 O   0  0  0  0  0  0  0  0  0  0  0  0
    1.5570   12.2530    0.5940 C   0  0  0  0  0  0  0  0  0  0  0  0
    2.5280   13.4580    0.5340 C   0  0  0  0  0  0  0  0  0  0  0  0
    0.6510   12.4870    1.8330 C   0  0  0  0  0  0  0  0  0  0  0  0
    0.7630   11.6010   -3.3290 C   0  0  1  0  0  0  0  0  0  0  0  0
    0.0710   10.2070   -3.4290 C   0  0  0  0  0  0  0  0  0  0  0  0
    1.7660   11.6870   -4.5390 C   0  0  0  0  0  0  0  0  0  0  0  0
    2.1090   13.0960   -5.0590 C   0  0  0  0  0  0  0  0  0  0  0  0
    0.8380   13.9190   -5.2920 C   0  0  2  0  0  0  0  0  0  0  0  0
    0.0030   13.2030   -6.4070 C   0  0  0  0  0  0  0  0  0  0  0  0
    2.6147   17.2076   -6.2052 H   0  0  0  0  0  0  0  0  0  0  0  0
    3.2840   16.6047   -7.7593 H   0  0  0  0  0  0  0  0  0  0  0  0
    1.8611   17.7011   -7.7593 H   0  0  0  0  0  0  0  0  0  0  0  0
    1.9774   14.8052   -7.5610 H   0  0  0  0  0  0  0  0  0  0  0  0
   -0.4133   14.9261   -8.0007 H   0  0  0  0  0  0  0  0  0  0  0  0
   -0.3902   16.7081   -7.5921 H   0  0  0  0  0  0  0  0  0  0  0  0
   -0.2052   15.6355  -10.1318 H   0  0  0  0  0  0  0  0  0  0  0  0
    0.3078   17.2947   -9.6110 H   0  0  0  0  0  0  0  0  0  0  0  0
    2.1702   15.8445   -8.7842 H   0  0  0  0  0  0  0  0  0  0  0  0
    0.4332   14.0396  -11.3716 H   0  0  0  0  0  0  0  0  0  0  0  0
    0.8277   15.2879  -12.6015 H   0  0  0  0  0  0  0  0  0  0  0  0
    1.7025   13.7190  -12.6015 H   0  0  0  0  0  0  0  0  0  0  0  0
    3.9528   14.2428  -10.0251 H   0  0  0  0  0  0  0  0  0  0  0  0
    3.5490   13.4405  -11.5807 H   0  0  0  0  0  0  0  0  0  0  0  0
    4.3398   15.0534  -11.5807 H   0  0  0  0  0  0  0  0  0  0  0  0
    1.9103   15.8215   -5.1974 H   0  0  0  0  0  0  0  0  0  0  0  0
   -0.1553   17.0258   -4.8559 H   0  0  0  0  0  0  0  0  0  0  0  0
   -0.9477   16.2085   -6.2199 H   0  0  0  0  0  0  0  0  0  0  0  0
   -1.3893   15.6336   -3.4554 H   0  0  0  0  0  0  0  0  0  0  0  0
   -1.8849   14.5769   -4.7750 H   0  0  0  0  0  0  0  0  0  0  0  0
    0.5676   14.5195   -1.8248 H   0  0  0  0  0  0  0  0  0  0  0  0
    1.9811   14.5922   -2.9309 H   0  0  0  0  0  0  0  0  0  0  0  0
    0.7714   15.9201   -2.9309 H   0  0  0  0  0  0  0  0  0  0  0  0
   -1.0590   12.3660   -4.2338 H   0  0  0  0  0  0  0  0  0  0  0  0
   -1.8071   13.6487   -2.1288 H   0  0  0  0  0  0  0  0  0  0  0  0
   -1.8935   11.8114   -2.2057 H   0  0  0  0  0  0  0  0  0  0  0  0
   -1.0285   12.8450    0.0580 H   0  0  0  0  0  0  0  0  0  0  0  0
    2.3079   12.5000   -2.1883 H   0  0  0  0  0  0  0  0  0  0  0  0
    1.5827    9.5988   -1.4478 H   0  0  0  0  0  0  0  0  0  0  0  0
    2.9868   10.1483   -2.4662 H   0  0  0  0  0  0  0  0  0  0  0  0
    3.6741    9.5567   -0.1644 H   0  0  0  0  0  0  0  0  0  0  0  0
    3.9588   11.2965   -0.5617 H   0  0  0  0  0  0  0  0  0  0  0  0
    3.0580   11.1505    1.6576 H   0  0  0  0  0  0  0  0  0  0  0  0
    0.5700   10.2580    1.2240 H   0  0  0  0  0  0  0  0  0  0  0  0
    2.7831   13.7746    1.5561 H   0  0  0  0  0  0  0  0  0  0  0  0
    3.4446   13.1641    0.0016 H   0  0  0  0  0  0  0  0  0  0  0  0
    2.0459   14.2912    0.0016 H   0  0  0  0  0  0  0  0  0  0  0  0
    1.2383   12.3353    2.7506 H   0  0  0  0  0  0  0  0  0  0  0  0
    0.2610   13.5153    1.8131 H   0  0  0  0  0  0  0  0  0  0  0  0
   -0.1882   11.7761    1.8131 H   0  0  0  0  0  0  0  0  0  0  0  0
   -0.1213    9.8197   -2.4176 H   0  0  0  0  0  0  0  0  0  0  0  0
   -0.8814   10.3084   -3.9700 H   0  0  0  0  0  0  0  0  0  0  0  0
    0.7276    9.5097   -3.9700 H   0  0  0  0  0  0  0  0  0  0  0  0
    2.7064   11.2099   -4.2261 H   0  0  0  0  0  0  0  0  0  0  0  0
    1.2519   11.1894   -5.3745 H   0  0  0  0  0  0  0  0  0  0  0  0
    2.7394   13.6094   -4.3180 H   0  0  0  0  0  0  0  0  0  0  0  0
    2.6427   12.9965   -6.0157 H   0  0  0  0  0  0  0  0  0  0  0  0
   -0.7529   12.5548   -5.9397 H   0  0  0  0  0  0  0  0  0  0  0  0
   -0.4969   13.9575   -7.0322 H   0  0  0  0  0  0  0  0  0  0  0  0
    0.6724   12.5939   -7.0322 H   0  0  0  0  0  0  0  0  0  0  0  0
  1  2  1  0
  2  3  1  0
  3  4  1  0
  4  5  1  0
  5  6  1  0
  6  7  1  0
  7  8  1  0
  7  9  1  0
  2 10  1  0
 10 11  1  0
 11 12  1  0
 12 13  1  0
 13 14  1  1
 13 15  1  0
 15 16  1  0
 16 17  1  0
 17 18  2  0
 18 19  1  0
 19 20  1  0
 20 21  1  0
 21 22  1  0
 22 23  1  0
 22 24  1  0
 24 25  1  0
 24 26  1  0
 19 27  1  0
 27 28  1  1
 27 29  1  0
 29 30  1  0
 30 31  1  0
 31 32  1  6
  7  5  1  0
 31 10  1  0
 31 13  1  0
 27 15  1  0
 24 18  1  0
  1 33  1  0
  1 34  1  0
  1 35  1  0
  2 36  1  6
  3 37  1  0
  3 38  1  0
  4 39  1  0
  4 40  1  0
  5 41  1  1
  8 42  1  0
  8 43  1  0
  8 44  1  0
  9 45  1  0
  9 46  1  0
  9 47  1  0
 10 48  1  1
 11 49  1  0
 11 50  1  0
 12 51  1  0
 12 52  1  0
 14 53  1  0
 14 54  1  0
 14 55  1  0
 15 56  1  6
 16 57  1  0
 16 58  1  0
 17 59  1  0
 19 60  1  6
 20 61  1  0
 20 62  1  0
 21 63  1  0
 21 64  1  0
 22 65  1  1
 23 66  1  0
 25 67  1  0
 25 68  1  0
 25 69  1  0
 26 70  1  0
 26 71  1  0
 26 72  1  0
 28 73  1  0
 28 74  1  0
 28 75  1  0
 29 76  1  0
 29 77  1  0
 30 78  1  0
 30 79  1  0
 32 80  1  0
 32 81  1  0
 32 82  1  0
M  END
>  <meeko>  (13) 
{"is_sidechain": [false], "intermolecular_energy": 2.731, "internal_energy": -0.839}

$$$$
EPH_relaxed_0001_pdb2pqr_Repair_292_r2_0001_out
     RDKit          3D

 82 86  0  0  0  0  0  0  0  0999 V2000
    0.9420   14.8100   -2.5540 C   0  0  0  0  0  0  0  0  0  0  0  0
    1.1840   14.1440   -3.9120 C   0  0  2  0  0  0  0  0  0  0  0  0
    0.4700   14.8860   -5.0590 C   0  0  0  0  0  0  0  0  0  0  0  0
    1.0960   14.6430   -6.4340 C   0  0  0  0  0  0  0  0  0  0  0  0
    0.8860   15.8080   -7.3530 C   0  0  2  0  0  0  0  0  0  0  0  0
    0.3580   15.4660   -8.6420 O   0  0  0  0  0  0  0  0  0  0  0  0
    1.6820   16.0230   -8.6270 C   0  0  0  0  0  0  0  0  0  0  0  0
    2.7510   15.0650   -9.0510 C   0  0  0  0  0  0  0  0  0  0  0  0
    1.7610   17.4050   -9.1960 C   0  0  0  0  0  0  0  0  0  0  0  0
    0.7260   12.6910   -3.8660 C   0  0  1  0  0  0  0  0  0  0  0  0
    1.8620   11.6950   -4.2210 C   0  0  0  0  0  0  0  0  0  0  0  0
    1.6370   10.4320   -3.3510 C   0  0  0  0  0  0  0  0  0  0  0  0
    0.2110   10.6020   -2.7770 C   0  0  1  0  0  0  0  0  0  0  0  0
   -0.7410   10.1360   -3.9230 C   0  0  0  0  0  0  0  0  0  0  0  0
   -0.0890    9.8540   -1.4380 C   0  0  2  0  0  0  0  0  0  0  0  0
    0.0110    8.3200   -1.5100 C   0  0  0  0  0  0  0  0  0  0  0  0
   -1.2570    7.6150   -1.8620 C   0  0  0  0  0  0  0  0  0  0  0  0
   -2.4890    8.1570   -1.8310 C   0  0  0  0  0  0  0  0  0  0  0  0
   -2.7070    9.5860   -1.3170 C   0  0  1  0  0  0  0  0  0  0  0  0
   -3.9100    9.6060   -0.3380 C   0  0  0  0  0  0  0  0  0  0  0  0
   -5.1720    9.0060   -0.9490 C   0  0  0  0  0  0  0  0  0  0  0  0
   -4.9320    7.5660   -1.3950 C   0  0  2  0  0  0  0  0  0  0  0  0
   -4.7040    6.7570   -0.2370 O   0  0  0  0  0  0  0  0  0  0  0  0
   -3.7360    7.4210   -2.3780 C   0  0  0  0  0  0  0  0  0  0  0  0
   -4.1080    8.0440   -3.7460 C   0  0  0  0  0  0  0  0  0  0  0  0
   -3.5130    5.9060   -2.6370 C   0  0  0  0  0  0  0  0  0  0  0  0
   -1.4250   10.3130   -0.7240 C   0  0  1  0  0  0  0  0  0  0  0  0
   -1.2650    9.9610    0.7870 C   0  0  0  0  0  0  0  0  0  0  0  0
   -1.6370   11.8710   -0.7970 C   0  0  0  0  0  0  0  0  0  0  0  0
   -1.2100   12.5700   -2.1020 C   0  0  0  0  0  0  0  0  0  0  0  0
    0.2050   12.1510   -2.5110 C   0  0  2  0  0  0  0  0  0  0  0  0
    1.1880   12.6270   -1.3870 C   0  0  0  0  0  0  0  0  0  0  0  0
    1.1981   14.1053   -1.7492 H   0  0  0  0  0  0  0  0  0  0  0  0
    1.5712   15.7082   -2.4688 H   0  0  0  0  0  0  0  0  0  0  0  0
   -0.1171   15.0948   -2.4688 H   0  0  0  0  0  0  0  0  0  0  0  0
    2.2644   14.1875   -4.1143 H   0  0  0  0  0  0  0  0  0  0  0  0
   -0.5772   14.5509   -5.0903 H   0  0  0  0  0  0  0  0  0  0  0  0
    0.5608   15.9623   -4.8506 H   0  0  0  0  0  0  0  0  0  0  0  0
    2.1763   14.4775   -6.3095 H   0  0  0  0  0  0  0  0  0  0  0  0
    0.6109   13.7625   -6.8806 H   0  0  0  0  0  0  0  0  0  0  0  0
    0.6618   16.4688   -6.5026 H   0  0  0  0  0  0  0  0  0  0  0  0
    3.2317   14.6343   -8.1603 H   0  0  0  0  0  0  0  0  0  0  0  0
    2.3041   14.2595   -9.6522 H   0  0  0  0  0  0  0  0  0  0  0  0
    3.5029   15.5972   -9.6522 H   0  0  0  0  0  0  0  0  0  0  0  0
    1.8029   18.1372   -8.3762 H   0  0  0  0  0  0  0  0  0  0  0  0
    2.6658   17.4955   -9.8150 H   0  0  0  0  0  0  0  0  0  0  0  0
    0.8724   17.5980   -9.8150 H   0  0  0  0  0  0  0  0  0  0  0  0
   -0.0972   12.7349   -4.5943 H   0  0  0  0  0  0  0  0  0  0  0  0
    1.8162   11.4329   -5.2883 H   0  0  0  0  0  0  0  0  0  0  0  0
    2.8503   12.1374   -4.0271 H   0  0  0  0  0  0  0  0  0  0  0  0
    1.7026    9.5213   -3.9644 H   0  0  0  0  0  0  0  0  0  0  0  0
    2.3952   10.3297   -2.5606 H   0  0  0  0  0  0  0  0  0  0  0  0
   -1.6484    9.6918   -3.4880 H   0  0  0  0  0  0  0  0  0  0  0  0
   -1.0176   11.0006   -4.5443 H   0  0  0  0  0  0  0  0  0  0  0  0
   -0.2278    9.3872   -4.5443 H   0  0  0  0  0  0  0  0  0  0  0  0
    0.7437   10.1776   -0.7962 H   0  0  0  0  0  0  0  0  0  0  0  0
    0.7647    8.0636   -2.2691 H   0  0  0  0  0  0  0  0  0  0  0  0
    0.2752    7.9840   -0.4965 H   0  0  0  0  0  0  0  0  0  0  0  0
   -1.1779    6.5629   -2.1733 H   0  0  0  0  0  0  0  0  0  0  0  0
   -2.9367   10.1961   -2.2030 H   0  0  0  0  0  0  0  0  0  0  0  0
   -3.6438    9.0283    0.5594 H   0  0  0  0  0  0  0  0  0  0  0  0
   -4.1245   10.6570   -0.0944 H   0  0  0  0  0  0  0  0  0  0  0  0
   -5.9769    9.0211   -0.1994 H   0  0  0  0  0  0  0  0  0  0  0  0
   -5.4537    9.6032   -1.8287 H   0  0  0  0  0  0  0  0  0  0  0  0
   -5.8282    7.2352   -1.9403 H   0  0  0  0  0  0  0  0  0  0  0  0
   -4.0020    6.1210   -0.4560 H   0  0  0  0  0  0  0  0  0  0  0  0
   -4.6658    8.9781   -3.5840 H   0  0  0  0  0  0  0  0  0  0  0  0
   -3.1901    8.2587   -4.3129 H   0  0  0  0  0  0  0  0  0  0  0  0
   -4.7324    7.3378   -4.3129 H   0  0  0  0  0  0  0  0  0  0  0  0
   -3.4352    5.3772   -1.6756 H   0  0  0  0  0  0  0  0  0  0  0  0
   -4.3615    5.5031   -3.2094 H   0  0  0  0  0  0  0  0  0  0  0  0
   -2.5844    5.7647   -3.2094 H   0  0  0  0  0  0  0  0  0  0  0  0
   -1.6431   10.7929    1.3993 H   0  0  0  0  0  0  0  0  0  0  0  0
   -1.8371    9.0493    1.0137 H   0  0  0  0  0  0  0  0  0  0  0  0
   -0.2019    9.7926    1.0137 H   0  0  0  0  0  0  0  0  0  0  0  0
   -2.7090   12.0682   -0.6493 H   0  0  0  0  0  0  0  0  0  0  0  0
   -0.9801   12.2875   -0.0192 H   0  0  0  0  0  0  0  0  0  0  0  0
   -1.9121   12.2960   -2.9033 H   0  0  0  0  0  0  0  0  0  0  0  0
   -1.2196   13.6574   -1.9366 H   0  0  0  0  0  0  0  0  0  0  0  0
    0.7485   12.4142   -0.4013 H   0  0  0  0  0  0  0  0  0  0  0  0
    2.1441   12.0921   -1.4854 H   0  0  0  0  0  0  0  0  0  0  0  0
    1.3613   13.7088   -1.4854 H   0  0  0  0  0  0  0  0  0  0  0  0
  1  2  1  0
  2  3  1  0
  3  4  1  0
  4  5  1  0
  5  6  1  0
  6  7  1  0
  7  8  1  0
  7  9  1  0
  2 10  1  0
 10 11  1  0
 11 12  1  0
 12 13  1  0
 13 14  1  6
 13 15  1  0
 15 16  1  0
 16 17  1  0
 17 18  2  0
 18 19  1  0
 19 20  1  0
 20 21  1  0
 21 22  1  0
 22 23  1  0
 22 24  1  0
 24 25  1  0
 24 26  1  0
 19 27  1  0
 27 28  1  1
 27 29  1  0
 29 30  1  0
 30 31  1  0
 31 32  1  1
  7  5  1  0
 31 10  1  0
 31 13  1  0
 27 15  1  0
 24 18  1  0
  1 33  1  0
  1 34  1  0
  1 35  1  0
  2 36  1  6
  3 37  1  0
  3 38  1  0
  4 39  1  0
  4 40  1  0
  5 41  1  1
  8 42  1  0
  8 43  1  0
  8 44  1  0
  9 45  1  0
  9 46  1  0
  9 47  1  0
 10 48  1  6
 11 49  1  0
 11 50  1  0
 12 51  1  0
 12 52  1  0
 14 53  1  0
 14 54  1  0
 14 55  1  0
 15 56  1  1
 16 57  1  0
 16 58  1  0
 17 59  1  0
 19 60  1  6
 20 61  1  0
 20 62  1  0
 21 63  1  0
 21 64  1  0
 22 65  1  6
 23 66  1  0
 25 67  1  0
 25 68  1  0
 25 69  1  0
 26 70  1  0
 26 71  1  0
 26 72  1  0
 28 73  1  0
 28 74  1  0
 28 75  1  0
 29 76  1  0
 29 77  1  0
 30 78  1  0
 30 79  1  0
 32 80  1  0
 32 81  1  0
 32 82  1  0
M  END
>  <meeko>  (14) 
{"is_sidechain": [false], "intermolecular_energy": 2.731, "internal_energy": -0.839}

$$$$
EPH_relaxed_0001_pdb2pqr_Repair_292_r2_0001_out
     RDKit          3D

 82 86  0  0  0  0  0  0  0  0999 V2000
    1.1090   10.3820   -4.2270 C   0  0  0  0  0  0  0  0  0  0  0  0
    1.7510   11.5760   -4.9390 C   0  0  2  0  0  0  0  0  0  0  0  0
    3.2910   11.4990   -4.9290 C   0  0  0  0  0  0  0  0  0  0  0  0
    3.8450   10.3610   -4.0680 C   0  0  0  0  0  0  0  0  0  0  0  0
    5.1750   10.7120   -3.4740 C   0  0  2  0  0  0  0  0  0  0  0  0
    5.7180   11.9630   -3.9170 O   0  0  0  0  0  0  0  0  0  0  0  0
    6.4580   10.7860   -4.2800 C   0  0  0  0  0  0  0  0  0  0  0  0
    6.4740   10.5060   -5.7500 C   0  0  0  0  0  0  0  0  0  0  0  0
    7.7640   10.6500   -3.5610 C   0  0  0  0  0  0  0  0  0  0  0  0
    1.2900   12.8770   -4.2910 C   0  0  1  0  0  0  0  0  0  0  0  0
   -0.2500   13.0590   -4.3460 C   0  0  0  0  0  0  0  0  0  0  0  0
   -0.6620   13.7820   -3.0380 C   0  0  0  0  0  0  0  0  0  0  0  0
    0.6690   14.2840   -2.4340 C   0  0  1  0  0  0  0  0  0  0  0  0
    0.9900   15.6010   -3.2090 C   0  0  0  0  0  0  0  0  0  0  0  0
    0.6850   14.5070   -0.8860 C   0  0  2  0  0  0  0  0  0  0  0  0
   -0.2880   15.5820   -0.3720 C   0  0  0  0  0  0  0  0  0  0  0  0
    0.2710   16.9640   -0.2940 C   0  0  0  0  0  0  0  0  0  0  0  0
    1.5770   17.2840   -0.3500 C   0  0  0  0  0  0  0  0  0  0  0  0
    2.6530   16.1920   -0.4080 C   0  0  1  0  0  0  0  0  0  0  0  0
    3.7810   16.5230    0.6040 C   0  0  0  0  0  0  0  0  0  0  0  0
    4.3570   17.9210    0.4020 C   0  0  0  0  0  0  0  0  0  0  0  0
    3.2670   18.9830    0.5250 C   0  0  2  0  0  0  0  0  0  0  0  0
    2.7960   19.0060    1.8760 O   0  0  0  0  0  0  0  0  0  0  0  0
    2.0720   18.7480   -0.4410 C   0  0  0  0  0  0  0  0  0  0  0  0
    2.5200   19.0210   -1.8980 C   0  0  0  0  0  0  0  0  0  0  0  0
    0.9820   19.8050   -0.1170 C   0  0  0  0  0  0  0  0  0  0  0  0
    2.1320   14.6970   -0.2740 C   0  0  1  0  0  0  0  0  0  0  0  0
    2.0340   14.3010    1.2310 C   0  0  0  0  0  0  0  0  0  0  0  0
    3.1880   13.7240   -0.9210 C   0  0  0  0  0  0  0  0  0  0  0  0
    3.0470   13.4500   -2.4300 C   0  0  0  0  0  0  0  0  0  0  0  0
    1.6060   13.0720   -2.7860 C   0  0  2  0  0  0  0  0  0  0  0  0
    1.2630   11.7390   -2.0390 C   0  0  0  0  0  0  0  0  0  0  0  0
    1.1836   10.5208   -3.1384 H   0  0  0  0  0  0  0  0  0  0  0  0
    0.0500   10.3091   -4.5156 H   0  0  0  0  0  0  0  0  0  0  0  0
    1.6321    9.4584   -4.5156 H   0  0  0  0  0  0  0  0  0  0  0  0
    1.4262   11.5484   -5.9896 H   0  0  0  0  0  0  0  0  0  0  0  0
    3.6381   11.3530   -5.9626 H   0  0  0  0  0  0  0  0  0  0  0  0
    3.6569   12.4399   -4.4921 H   0  0  0  0  0  0  0  0  0  0  0  0
    3.1352   10.1518   -3.2541 H   0  0  0  0  0  0  0  0  0  0  0  0
    3.9789    9.4786   -4.7110 H   0  0  0  0  0  0  0  0  0  0  0  0
    4.9203   10.1924   -2.5385 H   0  0  0  0  0  0  0  0  0  0  0  0
    6.5360    9.4203   -5.9158 H   0  0  0  0  0  0  0  0  0  0  0  0
    5.5522   10.8947   -6.2074 H   0  0  0  0  0  0  0  0  0  0  0  0
    7.3455   10.9972   -6.2074 H   0  0  0  0  0  0  0  0  0  0  0  0
    7.5885   10.6683   -2.4753 H   0  0  0  0  0  0  0  0  0  0  0  0
    8.2386    9.6976   -3.8397 H   0  0  0  0  0  0  0  0  0  0  0  0
    8.4246   11.4842   -3.8397 H   0  0  0  0  0  0  0  0  0  0  0  0
    1.8637   13.5968   -4.8932 H   0  0  0  0  0  0  0  0  0  0  0  0
   -0.5286   13.6675   -5.2190 H   0  0  0  0  0  0  0  0  0  0  0  0
   -0.7593   12.0884   -4.4380 H   0  0  0  0  0  0  0  0  0  0  0  0
   -1.3325   14.6264   -3.2557 H   0  0  0  0  0  0  0  0  0  0  0  0
   -1.2089   13.1203   -2.3502 H   0  0  0  0  0  0  0  0  0  0  0  0
    1.1873   16.4104   -2.4907 H   0  0  0  0  0  0  0  0  0  0  0  0
    1.8770   15.4475   -3.8412 H   0  0  0  0  0  0  0  0  0  0  0  0
    0.1318   15.8729   -3.8412 H   0  0  0  0  0  0  0  0  0  0  0  0
    0.3004   13.5494   -0.5052 H   0  0  0  0  0  0  0  0  0  0  0  0
   -1.1567   15.6044   -1.0464 H   0  0  0  0  0  0  0  0  0  0  0  0
   -0.5386   15.2967    0.6604 H   0  0  0  0  0  0  0  0  0  0  0  0
   -0.4454   17.7910   -0.1812 H   0  0  0  0  0  0  0  0  0  0  0  0
    3.0526   16.2128   -1.4326 H   0  0  0  0  0  0  0  0  0  0  0  0
    3.3720   16.4541    1.6228 H   0  0  0  0  0  0  0  0  0  0  0  0
    4.5950   15.8005    0.4445 H   0  0  0  0  0  0  0  0  0  0  0  0
    5.1280   18.1064    1.1644 H   0  0  0  0  0  0  0  0  0  0  0  0
    4.7919   17.9793   -0.6067 H   0  0  0  0  0  0  0  0  0  0  0  0
    3.7132   19.9483    0.2436 H   0  0  0  0  0  0  0  0  0  0  0  0
    3.4610   19.4730    2.4110 H   0  0  0  0  0  0  0  0  0  0  0  0
    3.4593   19.5934   -1.8916 H   0  0  0  0  0  0  0  0  0  0  0  0
    2.6768   18.0648   -2.4187 H   0  0  0  0  0  0  0  0  0  0  0  0
    1.7421   19.5987   -2.4187 H   0  0  0  0  0  0  0  0  0  0  0  0
    0.8799   19.9040    0.9738 H   0  0  0  0  0  0  0  0  0  0  0  0
    1.2721   20.7747   -0.5476 H   0  0  0  0  0  0  0  0  0  0  0  0
    0.0216   19.4852   -0.5476 H   0  0  0  0  0  0  0  0  0  0  0  0
    2.2514   15.1795    1.8562 H   0  0  0  0  0  0  0  0  0  0  0  0
    1.0189   13.9378    1.4492 H   0  0  0  0  0  0  0  0  0  0  0  0
    2.7626   13.5063    1.4492 H   0  0  0  0  0  0  0  0  0  0  0  0
    4.1855   14.1563   -0.7531 H   0  0  0  0  0  0  0  0  0  0  0  0
    3.0191   12.7517   -0.4350 H   0  0  0  0  0  0  0  0  0  0  0  0
    3.3301   14.3547   -2.9880 H   0  0  0  0  0  0  0  0  0  0  0  0
    3.7061   12.6109   -2.6973 H   0  0  0  0  0  0  0  0  0  0  0  0
    1.3060   11.9060   -0.9526 H   0  0  0  0  0  0  0  0  0  0  0  0
    0.2512   11.4112   -2.3199 H   0  0  0  0  0  0  0  0  0  0  0  0
    1.9909   10.9635   -2.3199 H   0  0  0  0  0  0  0  0  0  0  0  0
  1  2  1  0
  2  3  1  0
  3  4  1  0
  4  5  1  0
  5  6  1  0
  6  7  1  0
  7  8  1  0
  7  9  1  0
  2 10  1  0
 10 11  1  0
 11 12  1  0
 12 13  1  0
 13 14  1  6
 13 15  1  0
 15 16  1  0
 16 17  1  0
 17 18  2  0
 18 19  1  0
 19 20  1  0
 20 21  1  0
 21 22  1  0
 22 23  1  0
 22 24  1  0
 24 25  1  0
 24 26  1  0
 19 27  1  0
 27 28  1  1
 27 29  1  0
 29 30  1  0
 30 31  1  0
 31 32  1  1
  7  5  1  0
 31 10  1  0
 31 13  1  0
 27 15  1  0
 24 18  1  0
  1 33  1  0
  1 34  1  0
  1 35  1  0
  2 36  1  6
  3 37  1  0
  3 38  1  0
  4 39  1  0
  4 40  1  0
  5 41  1  1
  8 42  1  0
  8 43  1  0
  8 44  1  0
  9 45  1  0
  9 46  1  0
  9 47  1  0
 10 48  1  6
 11 49  1  0
 11 50  1  0
 12 51  1  0
 12 52  1  0
 14 53  1  0
 14 54  1  0
 14 55  1  0
 15 56  1  1
 16 57  1  0
 16 58  1  0
 17 59  1  0
 19 60  1  6
 20 61  1  0
 20 62  1  0
 21 63  1  0
 21 64  1  0
 22 65  1  6
 23 66  1  0
 25 67  1  0
 25 68  1  0
 25 69  1  0
 26 70  1  0
 26 71  1  0
 26 72  1  0
 28 73  1  0
 28 74  1  0
 28 75  1  0
 29 76  1  0
 29 77  1  0
 30 78  1  0
 30 79  1  0
 32 80  1  0
 32 81  1  0
 32 82  1  0
M  END
>  <meeko>  (15) 
{"is_sidechain": [false], "intermolecular_energy": 2.731, "internal_energy": -0.839}

$$$$
EPH_relaxed_0001_pdb2pqr_Repair_292_r2_0001_out
     RDKit          3D

 82 86  0  0  0  0  0  0  0  0999 V2000
   -2.4580    7.7590   -0.0370 C   0  0  0  0  0  0  0  0  0  0  0  0
   -3.1240    9.1370   -0.0780 C   0  0  2  0  0  0  0  0  0  0  0  0
   -4.5990    9.0570   -0.5200 C   0  0  0  0  0  0  0  0  0  0  0  0
   -5.1360    7.6260   -0.6140 C   0  0  0  0  0  0  0  0  0  0  0  0
   -5.9200    7.4110   -1.8730 C   0  0  2  0  0  0  0  0  0  0  0  0
   -6.8320    8.4680   -2.1990 O   0  0  0  0  0  0  0  0  0  0  0  0
   -7.4220    7.1930   -1.8960 C   0  0  0  0  0  0  0  0  0  0  0  0
   -8.2280    7.1800   -0.6350 C   0  0  0  0  0  0  0  0  0  0  0  0
   -8.0280    6.5130   -3.0830 C   0  0  0  0  0  0  0  0  0  0  0  0
   -2.3500   10.0600   -1.0120 C   0  0  1  0  0  0  0  0  0  0  0  0
   -2.9890   11.4700   -1.1230 C   0  0  0  0  0  0  0  0  0  0  0  0
   -1.8220   12.4790   -1.2760 C   0  0  0  0  0  0  0  0  0  0  0  0
   -0.5850   11.6020   -1.5810 C   0  0  1  0  0  0  0  0  0  0  0  0
   -0.6820   11.2890   -3.1070 C   0  0  0  0  0  0  0  0  0  0  0  0
    0.8040   12.2120   -1.2030 C   0  0  2  0  0  0  0  0  0  0  0  0
    1.1750   13.5040   -1.9530 C   0  0  0  0  0  0  0  0  0  0  0  0
    1.9230   13.3070   -3.2300 C   0  0  0  0  0  0  0  0  0  0  0  0
    2.5300   12.1690   -3.6130 C   0  0  0  0  0  0  0  0  0  0  0  0
    2.5840   10.9520   -2.6810 C   0  0  1  0  0  0  0  0  0  0  0  0
    4.0250   10.3770   -2.6620 C   0  0  0  0  0  0  0  0  0  0  0  0
    4.5480   10.0640   -4.0600 C   0  0  0  0  0  0  0  0  0  0  0  0
    4.5340   11.3120   -4.9400 C   0  0  2  0  0  0  0  0  0  0  0  0
    5.4870   12.2480   -4.4280 O   0  0  0  0  0  0  0  0  0  0  0  0
    3.1350   11.9840   -5.0270 C   0  0  0  0  0  0  0  0  0  0  0  0
    2.1780   11.0890   -5.8520 C   0  0  0  0  0  0  0  0  0  0  0  0
    3.2900   13.3060   -5.8260 C   0  0  0  0  0  0  0  0  0  0  0  0
    1.9950   11.1710   -1.2210 C   0  0  1  0  0  0  0  0  0  0  0  0
    3.1010   11.7430   -0.2820 C   0  0  0  0  0  0  0  0  0  0  0  0
    1.5800    9.7760   -0.6200 C   0  0  0  0  0  0  0  0  0  0  0  0
    0.1530    9.2830   -0.9290 C   0  0  0  0  0  0  0  0  0  0  0  0
   -0.8790   10.3770   -0.6410 C   0  0  2  0  0  0  0  0  0  0  0  0
   -0.8210   10.6980    0.8920 C   0  0  0  0  0  0  0  0  0  0  0  0
   -2.3106    7.4540    1.0095 H   0  0  0  0  0  0  0  0  0  0  0  0
   -3.1011    7.0257   -0.5455 H   0  0  0  0  0  0  0  0  0  0  0  0
   -1.4838    7.8073   -0.5455 H   0  0  0  0  0  0  0  0  0  0  0  0
   -3.1078    9.5428    0.9443 H   0  0  0  0  0  0  0  0  0  0  0  0
   -5.2103    9.6103    0.2081 H   0  0  0  0  0  0  0  0  0  0  0  0
   -4.6561    9.4891   -1.5300 H   0  0  0  0  0  0  0  0  0  0  0  0
   -4.2884    6.9251   -0.5976 H   0  0  0  0  0  0  0  0  0  0  0  0
   -5.8059    7.4537    0.2413 H   0  0  0  0  0  0  0  0  0  0  0  0
   -5.0863    6.8536   -2.3249 H   0  0  0  0  0  0  0  0  0  0  0  0
   -7.5518    7.1909    0.2325 H   0  0  0  0  0  0  0  0  0  0  0  0
   -8.8768    8.0678   -0.6054 H   0  0  0  0  0  0  0  0  0  0  0  0
   -8.8478    6.2717   -0.6054 H   0  0  0  0  0  0  0  0  0  0  0  0
   -8.7239    5.7321   -2.7425 H   0  0  0  0  0  0  0  0  0  0  0  0
   -8.5733    7.2510   -3.6896 H   0  0  0  0  0  0  0  0  0  0  0  0
   -7.2323    6.0559   -3.6896 H   0  0  0  0  0  0  0  0  0  0  0  0
   -2.3850    9.4607   -1.9338 H   0  0  0  0  0  0  0  0  0  0  0  0
   -3.6494   11.5185   -2.0014 H   0  0  0  0  0  0  0  0  0  0  0  0
   -3.5959   11.6997   -0.2348 H   0  0  0  0  0  0  0  0  0  0  0  0
   -2.0175   13.1761   -2.1042 H   0  0  0  0  0  0  0  0  0  0  0  0
   -1.6838   13.0964   -0.3762 H   0  0  0  0  0  0  0  0  0  0  0  0
   -1.0049   10.2469   -3.2478 H   0  0  0  0  0  0  0  0  0  0  0  0
   -1.4126   11.9656   -3.5744 H   0  0  0  0  0  0  0  0  0  0  0  0
    0.3032   11.4339   -3.5744 H   0  0  0  0  0  0  0  0  0  0  0  0
    0.6546   12.5079   -0.1541 H   0  0  0  0  0  0  0  0  0  0  0  0
    0.2440   14.0424   -2.1839 H   0  0  0  0  0  0  0  0  0  0  0  0
    1.8512   14.0596   -1.2866 H   0  0  0  0  0  0  0  0  0  0  0  0
    1.9829   14.1649   -3.9158 H   0  0  0  0  0  0  0  0  0  0  0  0
    1.8926   10.2108   -3.1082 H   0  0  0  0  0  0  0  0  0  0  0  0
    4.6928   11.1144   -2.1926 H   0  0  0  0  0  0  0  0  0  0  0  0
    4.0010    9.4343   -2.0956 H   0  0  0  0  0  0  0  0  0  0  0  0
    5.5794    9.6893   -3.9830 H   0  0  0  0  0  0  0  0  0  0  0  0
    3.8961    9.3049   -4.5169 H   0  0  0  0  0  0  0  0  0  0  0  0
    4.7953   10.9987   -5.9615 H   0  0  0  0  0  0  0  0  0  0  0  0
    5.4690   13.0310   -5.0040 H   0  0  0  0  0  0  0  0  0  0  0  0
    1.5478   10.4996   -5.1697 H   0  0  0  0  0  0  0  0  0  0  0  0
    1.5397   11.7218   -6.4862 H   0  0  0  0  0  0  0  0  0  0  0  0
    2.7666   10.4098   -6.4862 H   0  0  0  0  0  0  0  0  0  0  0  0
    3.3888   14.1484   -5.1255 H   0  0  0  0  0  0  0  0  0  0  0  0
    4.1876   13.2486   -6.4593 H   0  0  0  0  0  0  0  0  0  0  0  0
    2.4035   13.4578   -6.4593 H   0  0  0  0  0  0  0  0  0  0  0  0
    2.8064   11.5906    0.7668 H   0  0  0  0  0  0  0  0  0  0  0  0
    4.0510   11.2231   -0.4752 H   0  0  0  0  0  0  0  0  0  0  0  0
    3.2258   12.8187   -0.4752 H   0  0  0  0  0  0  0  0  0  0  0  0
    2.2831    9.0242   -1.0078 H   0  0  0  0  0  0  0  0  0  0  0  0
    1.6072    9.9131    0.4711 H   0  0  0  0  0  0  0  0  0  0  0  0
    0.0917    9.0009   -1.9904 H   0  0  0  0  0  0  0  0  0  0  0  0
   -0.0656    8.4168   -0.2872 H   0  0  0  0  0  0  0  0  0  0  0  0
   -0.9878    9.7749    1.4665 H   0  0  0  0  0  0  0  0  0  0  0  0
    0.1666   11.1125    1.1427 H   0  0  0  0  0  0  0  0  0  0  0  0
   -1.6011   11.4319    1.1427 H   0  0  0  0  0  0  0  0  0  0  0  0
  1  2  1  0
  2  3  1  0
  3  4  1  0
  4  5  1  0
  5  6  1  0
  6  7  1  0
  7  8  1  0
  7  9  1  0
  2 10  1  0
 10 11  1  0
 11 12  1  0
 12 13  1  0
 13 14  1  6
 13 15  1  0
 15 16  1  0
 16 17  1  0
 17 18  2  0
 18 19  1  0
 19 20  1  0
 20 21  1  0
 21 22  1  0
 22 23  1  0
 22 24  1  0
 24 25  1  0
 24 26  1  0
 19 27  1  0
 27 28  1  1
 27 29  1  0
 29 30  1  0
 30 31  1  0
 31 32  1  1
  7  5  1  0
 31 10  1  0
 31 13  1  0
 27 15  1  0
 24 18  1  0
  1 33  1  0
  1 34  1  0
  1 35  1  0
  2 36  1  1
  3 37  1  0
  3 38  1  0
  4 39  1  0
  4 40  1  0
  5 41  1  6
  8 42  1  0
  8 43  1  0
  8 44  1  0
  9 45  1  0
  9 46  1  0
  9 47  1  0
 10 48  1  6
 11 49  1  0
 11 50  1  0
 12 51  1  0
 12 52  1  0
 14 53  1  0
 14 54  1  0
 14 55  1  0
 15 56  1  1
 16 57  1  0
 16 58  1  0
 17 59  1  0
 19 60  1  6
 20 61  1  0
 20 62  1  0
 21 63  1  0
 21 64  1  0
 22 65  1  6
 23 66  1  0
 25 67  1  0
 25 68  1  0
 25 69  1  0
 26 70  1  0
 26 71  1  0
 26 72  1  0
 28 73  1  0
 28 74  1  0
 28 75  1  0
 29 76  1  0
 29 77  1  0
 30 78  1  0
 30 79  1  0
 32 80  1  0
 32 81  1  0
 32 82  1  0
M  END
>  <meeko>  (16) 
{"is_sidechain": [false], "intermolecular_energy": 2.731, "internal_energy": -0.839}

$$$$
EPH_relaxed_0001_pdb2pqr_Repair_292_r2_0001_out
     RDKit          3D

 82 86  0  0  0  0  0  0  0  0999 V2000
    3.2590   17.3910   -0.5050 C   0  0  0  0  0  0  0  0  0  0  0  0
    2.0910   17.0230   -1.4240 C   0  0  2  0  0  0  0  0  0  0  0  0
    0.7290   17.4210   -0.8200 C   0  0  0  0  0  0  0  0  0  0  0  0
    0.8000   18.6310    0.1140 C   0  0  0  0  0  0  0  0  0  0  0  0
   -0.2720   19.6320   -0.1920 C   0  0  2  0  0  0  0  0  0  0  0  0
   -0.9150   20.1930    0.9600 O   0  0  0  0  0  0  0  0  0  0  0  0
   -1.7430   19.3970    0.0970 C   0  0  0  0  0  0  0  0  0  0  0  0
   -2.2220   18.1230    0.7190 C   0  0  0  0  0  0  0  0  0  0  0  0
   -2.7580   20.1910   -0.6650 C   0  0  0  0  0  0  0  0  0  0  0  0
    2.1130   15.5280   -1.7200 C   0  0  1  0  0  0  0  0  0  0  0  0
    3.5270   15.0160   -2.1050 C   0  0  0  0  0  0  0  0  0  0  0  0
    3.6540   13.5810   -1.5310 C   0  0  0  0  0  0  0  0  0  0  0  0
    2.2120   13.1920   -1.1300 C   0  0  1  0  0  0  0  0  0  0  0  0
    1.5360   12.7350   -2.4610 C   0  0  0  0  0  0  0  0  0  0  0  0
    2.0740   12.1080   -0.0110 C   0  0  2  0  0  0  0  0  0  0  0  0
    2.6580   10.7290   -0.3630 C   0  0  0  0  0  0  0  0  0  0  0  0
    1.7040    9.7790   -1.0090 C   0  0  0  0  0  0  0  0  0  0  0  0
    0.3650    9.9140   -1.0390 C   0  0  0  0  0  0  0  0  0  0  0  0
   -0.3270   11.0630   -0.2940 C   0  0  1  0  0  0  0  0  0  0  0  0
   -1.5380   10.5080    0.5020 C   0  0  0  0  0  0  0  0  0  0  0  0
   -2.5020    9.7160   -0.3760 C   0  0  0  0  0  0  0  0  0  0  0  0
   -1.7900    8.5490   -1.0530 C   0  0  2  0  0  0  0  0  0  0  0  0
   -1.3970    7.6050   -0.0520 O   0  0  0  0  0  0  0  0  0  0  0  0
   -0.5460    8.9850   -1.8780 C   0  0  0  0  0  0  0  0  0  0  0  0
   -1.0030    9.7600   -3.1380 C   0  0  0  0  0  0  0  0  0  0  0  0
    0.1610    7.7010   -2.3910 C   0  0  0  0  0  0  0  0  0  0  0  0
    0.6170   11.9830    0.5930 C   0  0  1  0  0  0  0  0  0  0  0  0
    0.7770   11.3650    2.0160 C   0  0  0  0  0  0  0  0  0  0  0  0
   -0.0710   13.3850    0.7930 C   0  0  0  0  0  0  0  0  0  0  0  0
    0.2000   14.4510   -0.2850 C   0  0  0  0  0  0  0  0  0  0  0  0
    1.6990   14.5700   -0.5750 C   0  0  2  0  0  0  0  0  0  0  0  0
    2.4040   15.0500    0.7400 C   0  0  0  0  0  0  0  0  0  0  0  0
    2.9450   17.2921    0.5446 H   0  0  0  0  0  0  0  0  0  0  0  0
    4.1055   16.7160   -0.6997 H   0  0  0  0  0  0  0  0  0  0  0  0
    3.5657   18.4293   -0.6997 H   0  0  0  0  0  0  0  0  0  0  0  0
    2.2151   17.5886   -2.3592 H   0  0  0  0  0  0  0  0  0  0  0  0
    0.0398   17.6583   -1.6439 H   0  0  0  0  0  0  0  0  0  0  0  0
    0.3839   16.5688   -0.2162 H   0  0  0  0  0  0  0  0  0  0  0  0
    0.6807   18.2873    1.1521 H   0  0  0  0  0  0  0  0  0  0  0  0
    1.7753   19.1186   -0.0307 H   0  0  0  0  0  0  0  0  0  0  0  0
    0.2592   19.9585   -1.0982 H   0  0  0  0  0  0  0  0  0  0  0  0
   -2.1877   18.2143    1.8147 H   0  0  0  0  0  0  0  0  0  0  0  0
   -3.2559   17.9252    0.3998 H   0  0  0  0  0  0  0  0  0  0  0  0
   -1.5745   17.2930    0.3998 H   0  0  0  0  0  0  0  0  0  0  0  0
   -3.4224   20.7107    0.0411 H   0  0  0  0  0  0  0  0  0  0  0  0
   -2.2453   20.9303   -1.2980 H   0  0  0  0  0  0  0  0  0  0  0  0
   -3.3521   19.5154   -1.2980 H   0  0  0  0  0  0  0  0  0  0  0  0
    1.3695   15.4894   -2.5297 H   0  0  0  0  0  0  0  0  0  0  0  0
    3.6384   14.9977   -3.1992 H   0  0  0  0  0  0  0  0  0  0  0  0
    4.3096   15.6744   -1.7000 H   0  0  0  0  0  0  0  0  0  0  0  0
    4.0445   12.8910   -2.2935 H   0  0  0  0  0  0  0  0  0  0  0  0
    4.3508   13.5318   -0.6813 H   0  0  0  0  0  0  0  0  0  0  0  0
    0.6448   12.1325   -2.2316 H   0  0  0  0  0  0  0  0  0  0  0  0
    1.2405   13.6193   -3.0446 H   0  0  0  0  0  0  0  0  0  0  0  0
    2.2465   12.1312   -3.0446 H   0  0  0  0  0  0  0  0  0  0  0  0
    2.7166   12.5085    0.7869 H   0  0  0  0  0  0  0  0  0  0  0  0
    3.5026   10.8829   -1.0507 H   0  0  0  0  0  0  0  0  0  0  0  0
    2.9470   10.2676    0.5928 H   0  0  0  0  0  0  0  0  0  0  0  0
    2.1318    8.8937   -1.5022 H   0  0  0  0  0  0  0  0  0  0  0  0
   -0.6773   11.7608   -1.0688 H   0  0  0  0  0  0  0  0  0  0  0  0
   -1.1638    9.8484    1.2988 H   0  0  0  0  0  0  0  0  0  0  0  0
   -2.0893   11.3667    0.9128 H   0  0  0  0  0  0  0  0  0  0  0  0
   -3.3194    9.3257    0.2481 H   0  0  0  0  0  0  0  0  0  0  0  0
   -2.8979   10.3848   -1.1544 H   0  0  0  0  0  0  0  0  0  0  0  0
   -2.4973    8.1003   -1.7660 H   0  0  0  0  0  0  0  0  0  0  0  0
   -0.6000    7.9530    0.3830 H   0  0  0  0  0  0  0  0  0  0  0  0
   -1.5399   10.6706   -2.8337 H   0  0  0  0  0  0  0  0  0  0  0  0
   -0.1232   10.0362   -3.7377 H   0  0  0  0  0  0  0  0  0  0  0  0
   -1.6705    9.1238   -3.7377 H   0  0  0  0  0  0  0  0  0  0  0  0
    0.4932    7.0977   -1.5333 H   0  0  0  0  0  0  0  0  0  0  0  0
   -0.5415    7.1147   -3.0016 H   0  0  0  0  0  0  0  0  0  0  0  0
    1.0321    7.9811   -3.0016 H   0  0  0  0  0  0  0  0  0  0  0  0
    0.5775   12.1357    2.7750 H   0  0  0  0  0  0  0  0  0  0  0  0
    0.0637   10.5366    2.1383 H   0  0  0  0  0  0  0  0  0  0  0  0
    1.8027   10.9868    2.1383 H   0  0  0  0  0  0  0  0  0  0  0  0
   -1.1578   13.2199    0.8321 H   0  0  0  0  0  0  0  0  0  0  0  0
    0.3667   13.7916    1.7166 H   0  0  0  0  0  0  0  0  0  0  0  0
   -0.3240   14.1684   -1.2100 H   0  0  0  0  0  0  0  0  0  0  0  0
   -0.1638   15.4217    0.0830 H   0  0  0  0  0  0  0  0  0  0  0  0
    1.8497   14.6726    1.6120 H   0  0  0  0  0  0  0  0  0  0  0  0
    3.4340   14.6647    0.7655 H   0  0  0  0  0  0  0  0  0  0  0  0
    2.4231   16.1495    0.7655 H   0  0  0  0  0  0  0  0  0  0  0  0
  1  2  1  0
  2  3  1  0
  3  4  1  0
  4  5  1  0
  5  6  1  0
  6  7  1  0
  7  8  1  0
  7  9  1  0
  2 10  1  0
 10 11  1  0
 11 12  1  0
 12 13  1  0
 13 14  1  6
 13 15  1  0
 15 16  1  0
 16 17  1  0
 17 18  2  0
 18 19  1  0
 19 20  1  0
 20 21  1  0
 21 22  1  0
 22 23  1  0
 22 24  1  0
 24 25  1  0
 24 26  1  0
 19 27  1  0
 27 28  1  1
 27 29  1  0
 29 30  1  0
 30 31  1  0
 31 32  1  1
  7  5  1  0
 31 10  1  0
 31 13  1  0
 27 15  1  0
 24 18  1  0
  1 33  1  0
  1 34  1  0
  1 35  1  0
  2 36  1  6
  3 37  1  0
  3 38  1  0
  4 39  1  0
  4 40  1  0
  5 41  1  6
  8 42  1  0
  8 43  1  0
  8 44  1  0
  9 45  1  0
  9 46  1  0
  9 47  1  0
 10 48  1  6
 11 49  1  0
 11 50  1  0
 12 51  1  0
 12 52  1  0
 14 53  1  0
 14 54  1  0
 14 55  1  0
 15 56  1  1
 16 57  1  0
 16 58  1  0
 17 59  1  0
 19 60  1  6
 20 61  1  0
 20 62  1  0
 21 63  1  0
 21 64  1  0
 22 65  1  6
 23 66  1  0
 25 67  1  0
 25 68  1  0
 25 69  1  0
 26 70  1  0
 26 71  1  0
 26 72  1  0
 28 73  1  0
 28 74  1  0
 28 75  1  0
 29 76  1  0
 29 77  1  0
 30 78  1  0
 30 79  1  0
 32 80  1  0
 32 81  1  0
 32 82  1  0
M  END
>  <meeko>  (17) 
{"is_sidechain": [false], "intermolecular_energy": 2.731, "internal_energy": -0.839}

$$$$
EPH_relaxed_0001_pdb2pqr_Repair_292_r2_0001_out
     RDKit          3D

 82 86  0  0  0  0  0  0  0  0999 V2000
    4.0140   18.4010   -0.9590 C   0  0  0  0  0  0  0  0  0  0  0  0
    2.8620   17.6520   -1.6350 C   0  0  2  0  0  0  0  0  0  0  0  0
    1.5090   18.3620   -1.4310 C   0  0  0  0  0  0  0  0  0  0  0  0
    1.4500   19.2230   -0.1660 C   0  0  0  0  0  0  0  0  0  0  0  0
    0.1910   20.0340   -0.1060 C   0  0  2  0  0  0  0  0  0  0  0  0
   -0.3550   20.1940    1.2100 O   0  0  0  0  0  0  0  0  0  0  0  0
   -1.1590   19.4560    0.2750 C   0  0  0  0  0  0  0  0  0  0  0  0
   -1.3190   18.0090    0.6200 C   0  0  0  0  0  0  0  0  0  0  0  0
   -2.3950   20.1800   -0.1600 C   0  0  0  0  0  0  0  0  0  0  0  0
    2.7880   16.2260   -1.1040 C   0  0  1  0  0  0  0  0  0  0  0  0
    3.0800   16.1380    0.4180 C   0  0  0  0  0  0  0  0  0  0  0  0
    2.1800   15.0090    0.9820 C   0  0  0  0  0  0  0  0  0  0  0  0
    1.6530   14.2680   -0.2700 C   0  0  1  0  0  0  0  0  0  0  0  0
    2.8130   13.3090   -0.6850 C   0  0  0  0  0  0  0  0  0  0  0  0
    0.3020   13.5010   -0.1000 C   0  0  2  0  0  0  0  0  0  0  0  0
    0.3270   12.3530    0.9240 C   0  0  0  0  0  0  0  0  0  0  0  0
    0.6940   11.0150    0.3740 C   0  0  0  0  0  0  0  0  0  0  0  0
    0.7150   10.6840   -0.9300 C   0  0  0  0  0  0  0  0  0  0  0  0
    0.2500   11.6780   -2.0020 C   0  0  1  0  0  0  0  0  0  0  0  0
   -0.6930   10.9580   -3.0020 C   0  0  0  0  0  0  0  0  0  0  0  0
   -0.0630    9.7050   -3.6020 C   0  0  0  0  0  0  0  0  0  0  0  0
    0.3330    8.7170   -2.5080 C   0  0  2  0  0  0  0  0  0  0  0  0
   -0.8540    8.2250   -1.8790 O   0  0  0  0  0  0  0  0  0  0  0  0
    1.2760    9.3330   -1.4370 C   0  0  0  0  0  0  0  0  0  0  0  0
    2.6720    9.5880   -2.0570 C   0  0  0  0  0  0  0  0  0  0  0  0
    1.4840    8.2760   -0.3200 C   0  0  0  0  0  0  0  0  0  0  0  0
   -0.3590   13.0440   -1.4640 C   0  0  1  0  0  0  0  0  0  0  0  0
   -1.8840   12.8730   -1.1840 C   0  0  0  0  0  0  0  0  0  0  0  0
   -0.2340   14.1410   -2.5860 C   0  0  0  0  0  0  0  0  0  0  0  0
    1.0780   14.9470   -2.6270 C   0  0  0  0  0  0  0  0  0  0  0  0
    1.4330   15.4870   -1.2380 C   0  0  2  0  0  0  0  0  0  0  0  0
    0.2950   16.4720   -0.8030 C   0  0  0  0  0  0  0  0  0  0  0  0
    3.9060   18.3308    0.1334 H   0  0  0  0  0  0  0  0  0  0  0  0
    4.9713   17.9521   -1.2624 H   0  0  0  0  0  0  0  0  0  0  0  0
    3.9922   19.4581   -1.2624 H   0  0  0  0  0  0  0  0  0  0  0  0
    3.0659   17.6360   -2.7158 H   0  0  0  0  0  0  0  0  0  0  0  0
    1.3219   19.0092   -2.3006 H   0  0  0  0  0  0  0  0  0  0  0  0
    0.7471   17.5763   -1.3208 H   0  0  0  0  0  0  0  0  0  0  0  0
    1.4930   18.5657    0.7150 H   0  0  0  0  0  0  0  0  0  0  0  0
    2.3040   19.9161   -0.1826 H   0  0  0  0  0  0  0  0  0  0  0  0
    0.5166   20.6467   -0.9595 H   0  0  0  0  0  0  0  0  0  0  0  0
   -1.3319   17.8921    1.7137 H   0  0  0  0  0  0  0  0  0  0  0  0
   -2.2641   17.6342    0.2000 H   0  0  0  0  0  0  0  0  0  0  0  0
   -0.4786   17.4368    0.2000 H   0  0  0  0  0  0  0  0  0  0  0  0
   -2.9578   20.5096    0.7258 H   0  0  0  0  0  0  0  0  0  0  0  0
   -2.1138   21.0562   -0.7627 H   0  0  0  0  0  0  0  0  0  0  0  0
   -3.0217   19.5062   -0.7627 H   0  0  0  0  0  0  0  0  0  0  0  0
    3.5419   15.7505   -1.7486 H   0  0  0  0  0  0  0  0  0  0  0  0
    4.1400   15.8974    0.5870 H   0  0  0  0  0  0  0  0  0  0  0  0
    2.8703   17.0960    0.9162 H   0  0  0  0  0  0  0  0  0  0  0  0
    2.7640   14.3284    1.6189 H   0  0  0  0  0  0  0  0  0  0  0  0
    1.3653   15.3992    1.6096 H   0  0  0  0  0  0  0  0  0  0  0  0
    3.2979   12.9081    0.2173 H   0  0  0  0  0  0  0  0  0  0  0  0
    2.4069   12.4794   -1.2824 H   0  0  0  0  0  0  0  0  0  0  0  0
    3.5515   13.8638   -1.2824 H   0  0  0  0  0  0  0  0  0  0  0  0
   -0.3539   14.2714    0.3316 H   0  0  0  0  0  0  0  0  0  0  0  0
    1.0568   12.6108    1.7057 H   0  0  0  0  0  0  0  0  0  0  0  0
   -0.7032   12.2561    1.2972 H   0  0  0  0  0  0  0  0  0  0  0  0
    0.9709   10.2328    1.0962 H   0  0  0  0  0  0  0  0  0  0  0  0
    1.1601   12.0121   -2.5217 H   0  0  0  0  0  0  0  0  0  0  0  0
   -1.6142   10.6711   -2.4738 H   0  0  0  0  0  0  0  0  0  0  0  0
   -0.8998   11.6555   -3.8271 H   0  0  0  0  0  0  0  0  0  0  0  0
   -0.7879    9.2248   -4.2758 H   0  0  0  0  0  0  0  0  0  0  0  0
    0.8414    9.9971   -4.1558 H   0  0  0  0  0  0  0  0  0  0  0  0
    0.8949    7.9021   -2.9878 H   0  0  0  0  0  0  0  0  0  0  0  0
   -0.7870    7.2560   -1.8390 H   0  0  0  0  0  0  0  0  0  0  0  0
    3.4110    9.7230   -1.2534 H   0  0  0  0  0  0  0  0  0  0  0  0
    2.9597    8.7275   -2.6790 H   0  0  0  0  0  0  0  0  0  0  0  0
    2.6369   10.4946   -2.6790 H   0  0  0  0  0  0  0  0  0  0  0  0
    1.3890    8.7587    0.6639 H   0  0  0  0  0  0  0  0  0  0  0  0
    0.7240    7.4866   -0.4160 H   0  0  0  0  0  0  0  0  0  0  0  0
    2.4865    7.8334   -0.4160 H   0  0  0  0  0  0  0  0  0  0  0  0
   -2.0575   12.8535   -0.0979 H   0  0  0  0  0  0  0  0  0  0  0  0
   -2.4350   13.7150   -1.6283 H   0  0  0  0  0  0  0  0  0  0  0  0
   -2.2349   11.9299   -1.6283 H   0  0  0  0  0  0  0  0  0  0  0  0
   -0.3455   13.6374   -3.5576 H   0  0  0  0  0  0  0  0  0  0  0  0
   -1.0173   14.8782   -2.3559 H   0  0  0  0  0  0  0  0  0  0  0  0
    1.8907   14.2940   -2.9778 H   0  0  0  0  0  0  0  0  0  0  0  0
    0.9457   15.7982   -3.3111 H   0  0  0  0  0  0  0  0  0  0  0  0
    0.2464   16.5141    0.2951 H   0  0  0  0  0  0  0  0  0  0  0  0
    0.5076   17.4758   -1.1993 H   0  0  0  0  0  0  0  0  0  0  0  0
   -0.6680   16.1177   -1.1993 H   0  0  0  0  0  0  0  0  0  0  0  0
  1  2  1  0
  2  3  1  0
  3  4  1  0
  4  5  1  0
  5  6  1  0
  6  7  1  0
  7  8  1  0
  7  9  1  0
  2 10  1  0
 10 11  1  0
 11 12  1  0
 12 13  1  0
 13 14  1  6
 13 15  1  0
 15 16  1  0
 16 17  1  0
 17 18  2  0
 18 19  1  0
 19 20  1  0
 20 21  1  0
 21 22  1  0
 22 23  1  0
 22 24  1  0
 24 25  1  0
 24 26  1  0
 19 27  1  0
 27 28  1  1
 27 29  1  0
 29 30  1  0
 30 31  1  0
 31 32  1  1
  7  5  1  0
 31 10  1  0
 31 13  1  0
 27 15  1  0
 24 18  1  0
  1 33  1  0
  1 34  1  0
  1 35  1  0
  2 36  1  6
  3 37  1  0
  3 38  1  0
  4 39  1  0
  4 40  1  0
  5 41  1  6
  8 42  1  0
  8 43  1  0
  8 44  1  0
  9 45  1  0
  9 46  1  0
  9 47  1  0
 10 48  1  6
 11 49  1  0
 11 50  1  0
 12 51  1  0
 12 52  1  0
 14 53  1  0
 14 54  1  0
 14 55  1  0
 15 56  1  1
 16 57  1  0
 16 58  1  0
 17 59  1  0
 19 60  1  6
 20 61  1  0
 20 62  1  0
 21 63  1  0
 21 64  1  0
 22 65  1  6
 23 66  1  0
 25 67  1  0
 25 68  1  0
 25 69  1  0
 26 70  1  0
 26 71  1  0
 26 72  1  0
 28 73  1  0
 28 74  1  0
 28 75  1  0
 29 76  1  0
 29 77  1  0
 30 78  1  0
 30 79  1  0
 32 80  1  0
 32 81  1  0
 32 82  1  0
M  END
>  <meeko>  (18) 
{"is_sidechain": [false], "intermolecular_energy": 2.731, "internal_energy": -0.839}

$$$$
