EPH_relaxed_0001_pdb2pqr_Repair_192_r2_0001_out
     RDKit          3D

 82 86  0  0  0  0  0  0  0  0999 V2000
   -1.6100    8.4450   -1.8270 C   0  0  0  0  0  0  0  0  0  0  0  0
   -1.9180    9.0850   -0.4700 C   0  0  2  0  0  0  0  0  0  0  0  0
   -3.3510    9.6500   -0.4060 C   0  0  0  0  0  0  0  0  0  0  0  0
   -4.4290    8.5760   -0.2370 C   0  0  0  0  0  0  0  0  0  0  0  0
   -5.0440    8.1960   -1.5500 C   0  0  2  0  0  0  0  0  0  0  0  0
   -6.3490    8.7430   -1.7810 O   0  0  0  0  0  0  0  0  0  0  0  0
   -6.2710    7.3120   -1.6750 C   0  0  0  0  0  0  0  0  0  0  0  0
   -6.9550    6.7530   -0.4670 C   0  0  0  0  0  0  0  0  0  0  0  0
   -6.5090    6.5980   -2.9680 C   0  0  0  0  0  0  0  0  0  0  0  0
   -0.9090   10.1880   -0.1750 C   0  0  1  0  0  0  0  0  0  0  0  0
    0.3560    9.6620    0.5550 C   0  0  0  0  0  0  0  0  0  0  0  0
    1.5530   10.4990    0.0360 C   0  0  0  0  0  0  0  0  0  0  0  0
    0.9030   11.6850   -0.7140 C   0  0  1  0  0  0  0  0  0  0  0  0
    0.5150   12.7020    0.4040 C   0  0  0  0  0  0  0  0  0  0  0  0
    1.7700   12.3560   -1.8290 C   0  0  2  0  0  0  0  0  0  0  0  0
    3.0760   13.0060   -1.3380 C   0  0  0  0  0  0  0  0  0  0  0  0
    2.9660   14.4430   -0.9510 C   0  0  0  0  0  0  0  0  0  0  0  0
    1.9420   15.2610   -1.2600 C   0  0  0  0  0  0  0  0  0  0  0  0
    0.7940   14.7810   -2.1580 C   0  0  1  0  0  0  0  0  0  0  0  0
    0.4920   15.8580   -3.2320 C   0  0  0  0  0  0  0  0  0  0  0  0
    0.2220   17.2310   -2.6240 C   0  0  0  0  0  0  0  0  0  0  0  0
    1.4080   17.6990   -1.7850 C   0  0  2  0  0  0  0  0  0  0  0  0
    2.5230   17.9310   -2.6530 O   0  0  0  0  0  0  0  0  0  0  0  0
    1.8110   16.6890   -0.6750 C   0  0  0  0  0  0  0  0  0  0  0  0
    0.7240   16.6650    0.4270 C   0  0  0  0  0  0  0  0  0  0  0  0
    3.1050   17.2150    0.0030 C   0  0  0  0  0  0  0  0  0  0  0  0
    0.9630   13.3280   -2.7810 C   0  0  1  0  0  0  0  0  0  0  0  0
    1.7640   13.4120   -4.1160 C   0  0  0  0  0  0  0  0  0  0  0  0
   -0.4580   12.7600   -3.1510 C   0  0  0  0  0  0  0  0  0  0  0  0
   -1.2140   12.0030   -2.0420 C   0  0  0  0  0  0  0  0  0  0  0  0
   -0.3150   10.9520   -1.3850 C   0  0  2  0  0  0  0  0  0  0  0  0
    0.0740    9.9020   -2.4810 C   0  0  0  0  0  0  0  0  0  0  0  0
   -1.1378    7.4638   -1.6709 H   0  0  0  0  0  0  0  0  0  0  0  0
   -2.5448    8.3163   -2.3923 H   0  0  0  0  0  0  0  0  0  0  0  0
   -0.9262    9.0952   -2.3923 H   0  0  0  0  0  0  0  0  0  0  0  0
   -1.8404    8.2965    0.2931 H   0  0  0  0  0  0  0  0  0  0  0  0
   -3.4137   10.3421    0.4467 H   0  0  0  0  0  0  0  0  0  0  0  0
   -3.5428   10.1496   -1.3671 H   0  0  0  0  0  0  0  0  0  0  0  0
   -3.9741    7.6825    0.2154 H   0  0  0  0  0  0  0  0  0  0  0  0
   -5.2215    8.9842    0.4074 H   0  0  0  0  0  0  0  0  0  0  0  0
   -4.0543    8.1563   -2.0284 H   0  0  0  0  0  0  0  0  0  0  0  0
   -6.4744    7.1458    0.4411 H   0  0  0  0  0  0  0  0  0  0  0  0
   -8.0150    7.0466   -0.4771 H   0  0  0  0  0  0  0  0  0  0  0  0
   -6.8783    5.6557   -0.4771 H   0  0  0  0  0  0  0  0  0  0  0  0
   -6.8508    5.5727   -2.7632 H   0  0  0  0  0  0  0  0  0  0  0  0
   -7.2777    7.1322   -3.5458 H   0  0  0  0  0  0  0  0  0  0  0  0
   -5.5736    6.5641   -3.5458 H   0  0  0  0  0  0  0  0  0  0  0  0
   -1.5426   10.8613    0.4210 H   0  0  0  0  0  0  0  0  0  0  0  0
    0.2469    9.7906    1.6420 H   0  0  0  0  0  0  0  0  0  0  0  0
    0.5086    8.5906    0.3580 H   0  0  0  0  0  0  0  0  0  0  0  0
    2.1674   10.8594    0.8742 H   0  0  0  0  0  0  0  0  0  0  0  0
    2.2228    9.9131   -0.6105 H   0  0  0  0  0  0  0  0  0  0  0  0
    0.6887   12.2467    1.3902 H   0  0  0  0  0  0  0  0  0  0  0  0
    1.1305   13.6083    0.3050 H   0  0  0  0  0  0  0  0  0  0  0  0
   -0.5478   12.9680    0.3050 H   0  0  0  0  0  0  0  0  0  0  0  0
    2.0767   11.4938   -2.4394 H   0  0  0  0  0  0  0  0  0  0  0  0
    3.4267   12.4434   -0.4602 H   0  0  0  0  0  0  0  0  0  0  0  0
    3.7717   12.9723   -2.1894 H   0  0  0  0  0  0  0  0  0  0  0  0
    3.7917   14.8704   -0.3633 H   0  0  0  0  0  0  0  0  0  0  0  0
   -0.0776   14.6575   -1.4984 H   0  0  0  0  0  0  0  0  0  0  0  0
    1.3571   15.9352   -3.9070 H   0  0  0  0  0  0  0  0  0  0  0  0
   -0.4153   15.5471   -3.7707 H   0  0  0  0  0  0  0  0  0  0  0  0
    0.0457   17.9548   -3.4334 H   0  0  0  0  0  0  0  0  0  0  0  0
   -0.6618   17.1590   -1.9731 H   0  0  0  0  0  0  0  0  0  0  0  0
    1.1045   18.6232   -1.2714 H   0  0  0  0  0  0  0  0  0  0  0  0
    2.5640   18.8860   -2.8300 H   0  0  0  0  0  0  0  0  0  0  0  0
    1.2046   16.6756    1.4164 H   0  0  0  0  0  0  0  0  0  0  0  0
    0.0777   17.5491    0.3238 H   0  0  0  0  0  0  0  0  0  0  0  0
    0.1173   15.7532    0.3238 H   0  0  0  0  0  0  0  0  0  0  0  0
    2.9911   17.1687    1.0961 H   0  0  0  0  0  0  0  0  0  0  0  0
    3.9586   16.5925   -0.3034 H   0  0  0  0  0  0  0  0  0  0  0  0
    3.2821   18.2565   -0.3034 H   0  0  0  0  0  0  0  0  0  0  0  0
    2.8355   13.5244   -3.8942 H   0  0  0  0  0  0  0  0  0  0  0  0
    1.6045   12.4922   -4.6978 H   0  0  0  0  0  0  0  0  0  0  0  0
    1.4171   14.2787   -4.6978 H   0  0  0  0  0  0  0  0  0  0  0  0
   -1.0851   13.6087   -3.4615 H   0  0  0  0  0  0  0  0  0  0  0  0
   -0.2734   12.0117   -3.9359 H   0  0  0  0  0  0  0  0  0  0  0  0
   -1.5456   12.7213   -1.2778 H   0  0  0  0  0  0  0  0  0  0  0  0
   -2.0785   11.4931   -2.4921 H   0  0  0  0  0  0  0  0  0  0  0  0
    0.4170    8.9760   -1.9963 H   0  0  0  0  0  0  0  0  0  0  0  0
   -0.8032    9.6844   -3.1081 H   0  0  0  0  0  0  0  0  0  0  0  0
    0.8812   10.3084   -3.1081 H   0  0  0  0  0  0  0  0  0  0  0  0
  1  2  1  0
  2  3  1  0
  3  4  1  0
  4  5  1  0
  5  6  1  0
  6  7  1  0
  7  8  1  0
  7  9  1  0
  2 10  1  0
 10 11  1  0
 11 12  1  0
 12 13  1  0
 13 14  1  1
 13 15  1  0
 15 16  1  0
 16 17  1  0
 17 18  2  0
 18 19  1  0
 19 20  1  0
 20 21  1  0
 21 22  1  0
 22 23  1  0
 22 24  1  0
 24 25  1  0
 24 26  1  0
 19 27  1  0
 27 28  1  6
 27 29  1  0
 29 30  1  0
 30 31  1  0
 31 32  1  6
  7  5  1  0
 31 10  1  0
 31 13  1  0
 27 15  1  0
 24 18  1  0
  1 33  1  0
  1 34  1  0
  1 35  1  0
  2 36  1  1
  3 37  1  0
  3 38  1  0
  4 39  1  0
  4 40  1  0
  5 41  1  6
  8 42  1  0
  8 43  1  0
  8 44  1  0
  9 45  1  0
  9 46  1  0
  9 47  1  0
 10 48  1  1
 11 49  1  0
 11 50  1  0
 12 51  1  0
 12 52  1  0
 14 53  1  0
 14 54  1  0
 14 55  1  0
 15 56  1  6
 16 57  1  0
 16 58  1  0
 17 59  1  0
 19 60  1  1
 20 61  1  0
 20 62  1  0
 21 63  1  0
 21 64  1  0
 22 65  1  1
 23 66  1  0
 25 67  1  0
 25 68  1  0
 25 69  1  0
 26 70  1  0
 26 71  1  0
 26 72  1  0
 28 73  1  0
 28 74  1  0
 28 75  1  0
 29 76  1  0
 29 77  1  0
 30 78  1  0
 30 79  1  0
 32 80  1  0
 32 81  1  0
 32 82  1  0
M  END
>  <meeko>  (1) 
{"is_sidechain": [false], "intermolecular_energy": 2.731, "internal_energy": -0.839}

$$$$
EPH_relaxed_0001_pdb2pqr_Repair_192_r2_0001_out
     RDKit          3D

 82 86  0  0  0  0  0  0  0  0999 V2000
   -0.2790   10.9730   -3.8350 C   0  0  0  0  0  0  0  0  0  0  0  0
    0.9500   10.6110   -2.9970 C   0  0  2  0  0  0  0  0  0  0  0  0
    0.8030    9.2360   -2.3140 C   0  0  0  0  0  0  0  0  0  0  0  0
    0.3530    9.3200   -0.8530 C   0  0  0  0  0  0  0  0  0  0  0  0
   -1.0420    8.8040   -0.6710 C   0  0  2  0  0  0  0  0  0  0  0  0
   -1.8820    8.9320   -1.8260 O   0  0  0  0  0  0  0  0  0  0  0  0
   -2.2700    9.6950   -0.6720 C   0  0  0  0  0  0  0  0  0  0  0  0
   -2.1590   11.1760   -0.8560 C   0  0  0  0  0  0  0  0  0  0  0  0
   -3.5170    9.1960   -0.0100 C   0  0  0  0  0  0  0  0  0  0  0  0
    1.2010   11.6890   -1.9490 C   0  0  1  0  0  0  0  0  0  0  0  0
    2.4650   11.4070   -1.0930 C   0  0  0  0  0  0  0  0  0  0  0  0
    3.1040   12.7830   -0.7730 C   0  0  0  0  0  0  0  0  0  0  0  0
    2.0230   13.8170   -1.1660 C   0  0  1  0  0  0  0  0  0  0  0  0
    1.0410   13.8500    0.0470 C   0  0  0  0  0  0  0  0  0  0  0  0
    2.5360   15.2470   -1.5340 C   0  0  2  0  0  0  0  0  0  0  0  0
    3.2510   15.9960   -0.3960 C   0  0  0  0  0  0  0  0  0  0  0  0
    2.3700   16.8390    0.4650 C   0  0  0  0  0  0  0  0  0  0  0  0
    1.1130   17.2160    0.1660 C   0  0  0  0  0  0  0  0  0  0  0  0
    0.4890   16.8700   -1.1920 C   0  0  1  0  0  0  0  0  0  0  0  0
   -0.2050   18.1270   -1.7790 C   0  0  0  0  0  0  0  0  0  0  0  0
   -1.2140   18.7430   -0.8130 C   0  0  0  0  0  0  0  0  0  0  0  0
   -0.5440   19.1270    0.5030 C   0  0  2  0  0  0  0  0  0  0  0  0
    0.3780   20.1930    0.2580 O   0  0  0  0  0  0  0  0  0  0  0  0
    0.1970   17.9410    1.1830 C   0  0  0  0  0  0  0  0  0  0  0  0
   -0.8370   16.9210    1.7200 C   0  0  0  0  0  0  0  0  0  0  0  0
    0.9460   18.4950    2.4250 C   0  0  0  0  0  0  0  0  0  0  0  0
    1.4540   16.1620   -2.2380 C   0  0  1  0  0  0  0  0  0  0  0  0
    2.2400   17.2370   -3.0490 C   0  0  0  0  0  0  0  0  0  0  0  0
    0.5850   15.3660   -3.2820 C   0  0  0  0  0  0  0  0  0  0  0  0
    0.2110   13.9170   -2.9140 C   0  0  0  0  0  0  0  0  0  0  0  0
    1.4450   13.1320   -2.4580 C   0  0  2  0  0  0  0  0  0  0  0  0
    2.4410   13.0620   -3.6650 C   0  0  0  0  0  0  0  0  0  0  0  0
   -1.1179   11.2201   -3.1678 H   0  0  0  0  0  0  0  0  0  0  0  0
   -0.0473   11.8411   -4.4697 H   0  0  0  0  0  0  0  0  0  0  0  0
   -0.5548   10.1180   -4.4697 H   0  0  0  0  0  0  0  0  0  0  0  0
    1.8098   10.5499   -3.6804 H   0  0  0  0  0  0  0  0  0  0  0  0
    0.0601    8.6481   -2.8730 H   0  0  0  0  0  0  0  0  0  0  0  0
    1.7980    8.7670   -2.3177 H   0  0  0  0  0  0  0  0  0  0  0  0
    1.0378    8.7214   -0.2343 H   0  0  0  0  0  0  0  0  0  0  0  0
    0.3692   10.3773   -0.5500 H   0  0  0  0  0  0  0  0  0  0  0  0
   -0.6911    8.0324    0.0301 H   0  0  0  0  0  0  0  0  0  0  0  0
   -2.1223   11.6660    0.1281 H   0  0  0  0  0  0  0  0  0  0  0  0
   -1.2409   11.4082   -1.4157 H   0  0  0  0  0  0  0  0  0  0  0  0
   -3.0322   11.5424   -1.4157 H   0  0  0  0  0  0  0  0  0  0  0  0
   -3.3967    9.2442    1.0823 H   0  0  0  0  0  0  0  0  0  0  0  0
   -4.3689    9.8225   -0.3130 H   0  0  0  0  0  0  0  0  0  0  0  0
   -3.7015    8.1548   -0.3130 H   0  0  0  0  0  0  0  0  0  0  0  0
    0.2487   11.6390   -1.4007 H   0  0  0  0  0  0  0  0  0  0  0  0
    2.1849   10.8935   -0.1614 H   0  0  0  0  0  0  0  0  0  0  0  0
    3.1714   10.7592   -1.6328 H   0  0  0  0  0  0  0  0  0  0  0  0
    3.3438   12.8600    0.2978 H   0  0  0  0  0  0  0  0  0  0  0  0
    4.0480   12.9404   -1.3152 H   0  0  0  0  0  0  0  0  0  0  0  0
    1.6158   13.8307    0.9847 H   0  0  0  0  0  0  0  0  0  0  0  0
    0.4378   14.7689    0.0055 H   0  0  0  0  0  0  0  0  0  0  0  0
    0.3775   12.9736    0.0055 H   0  0  0  0  0  0  0  0  0  0  0  0
    3.3112   15.0341   -2.2849 H   0  0  0  0  0  0  0  0  0  0  0  0
    3.7410   15.2498    0.2468 H   0  0  0  0  0  0  0  0  0  0  0  0
    3.9540   16.6885   -0.8821 H   0  0  0  0  0  0  0  0  0  0  0  0
    2.7831   17.1812    1.4253 H   0  0  0  0  0  0  0  0  0  0  0  0
   -0.2598   16.0894   -0.9921 H   0  0  0  0  0  0  0  0  0  0  0  0
    0.5641   18.8781   -2.0120 H   0  0  0  0  0  0  0  0  0  0  0  0
   -0.7528   17.8157   -2.6807 H   0  0  0  0  0  0  0  0  0  0  0  0
   -1.6486   19.6433   -1.2719 H   0  0  0  0  0  0  0  0  0  0  0  0
   -1.9987   18.0010   -0.6043 H   0  0  0  0  0  0  0  0  0  0  0  0
   -1.3377   19.4403    1.1972 H   0  0  0  0  0  0  0  0  0  0  0  0
   -0.0130   21.0080    0.6150 H   0  0  0  0  0  0  0  0  0  0  0  0
   -0.8258   16.9320    2.8199 H   0  0  0  0  0  0  0  0  0  0  0  0
   -1.8406   17.1926    1.3608 H   0  0  0  0  0  0  0  0  0  0  0  0
   -0.5791   15.9138    1.3608 H   0  0  0  0  0  0  0  0  0  0  0  0
    0.4559   18.1325    3.3406 H   0  0  0  0  0  0  0  0  0  0  0  0
    1.9905   18.1504    2.4072 H   0  0  0  0  0  0  0  0  0  0  0  0
    0.9223   19.5946    2.4072 H   0  0  0  0  0  0  0  0  0  0  0  0
    2.7432   17.9252   -2.3540 H   0  0  0  0  0  0  0  0  0  0  0  0
    2.9907   16.7420   -3.6826 H   0  0  0  0  0  0  0  0  0  0  0  0
    1.5406   17.8022   -3.6826 H   0  0  0  0  0  0  0  0  0  0  0  0
   -0.3514   15.9240   -3.4299 H   0  0  0  0  0  0  0  0  0  0  0  0
    1.2176   15.2812   -4.1779 H   0  0  0  0  0  0  0  0  0  0  0  0
   -0.5277   13.9318   -2.0990 H   0  0  0  0  0  0  0  0  0  0  0  0
   -0.2084   13.4257   -3.8044 H   0  0  0  0  0  0  0  0  0  0  0  0
    3.4713   12.9896   -3.2865 H   0  0  0  0  0  0  0  0  0  0  0  0
    2.2126   12.1777   -4.2781 H   0  0  0  0  0  0  0  0  0  0  0  0
    2.3385   13.9696   -4.2781 H   0  0  0  0  0  0  0  0  0  0  0  0
  1  2  1  0
  2  3  1  0
  3  4  1  0
  4  5  1  0
  5  6  1  0
  6  7  1  0
  7  8  1  0
  7  9  1  0
  2 10  1  0
 10 11  1  0
 11 12  1  0
 12 13  1  0
 13 14  1  1
 13 15  1  0
 15 16  1  0
 16 17  1  0
 17 18  2  0
 18 19  1  0
 19 20  1  0
 20 21  1  0
 21 22  1  0
 22 23  1  0
 22 24  1  0
 24 25  1  0
 24 26  1  0
 19 27  1  0
 27 28  1  6
 27 29  1  0
 29 30  1  0
 30 31  1  0
 31 32  1  6
  7  5  1  0
 31 10  1  0
 31 13  1  0
 27 15  1  0
 24 18  1  0
  1 33  1  0
  1 34  1  0
  1 35  1  0
  2 36  1  6
  3 37  1  0
  3 38  1  0
  4 39  1  0
  4 40  1  0
  5 41  1  1
  8 42  1  0
  8 43  1  0
  8 44  1  0
  9 45  1  0
  9 46  1  0
  9 47  1  0
 10 48  1  1
 11 49  1  0
 11 50  1  0
 12 51  1  0
 12 52  1  0
 14 53  1  0
 14 54  1  0
 14 55  1  0
 15 56  1  6
 16 57  1  0
 16 58  1  0
 17 59  1  0
 19 60  1  1
 20 61  1  0
 20 62  1  0
 21 63  1  0
 21 64  1  0
 22 65  1  1
 23 66  1  0
 25 67  1  0
 25 68  1  0
 25 69  1  0
 26 70  1  0
 26 71  1  0
 26 72  1  0
 28 73  1  0
 28 74  1  0
 28 75  1  0
 29 76  1  0
 29 77  1  0
 30 78  1  0
 30 79  1  0
 32 80  1  0
 32 81  1  0
 32 82  1  0
M  END
>  <meeko>  (2) 
{"is_sidechain": [false], "intermolecular_energy": 2.731, "internal_energy": -0.839}

$$$$
EPH_relaxed_0001_pdb2pqr_Repair_192_r2_0001_out
     RDKit          3D

 82 86  0  0  0  0  0  0  0  0999 V2000
    2.0830   18.3510   -2.6890 C   0  0  0  0  0  0  0  0  0  0  0  0
    0.6910   17.9840   -2.1660 C   0  0  2  0  0  0  0  0  0  0  0  0
    0.5790   18.1630   -0.6390 C   0  0  0  0  0  0  0  0  0  0  0  0
    1.3010   19.4050   -0.1100 C   0  0  0  0  0  0  0  0  0  0  0  0
    2.6880   19.0820    0.3580 C   0  0  2  0  0  0  0  0  0  0  0  0
    2.8300   17.7910    0.9630 O   0  0  0  0  0  0  0  0  0  0  0  0
    3.0600   18.9210    1.8200 C   0  0  0  0  0  0  0  0  0  0  0  0
    2.0440   19.0790    2.9070 C   0  0  0  0  0  0  0  0  0  0  0  0
    4.4940   19.0940    2.2160 C   0  0  0  0  0  0  0  0  0  0  0  0
    0.3550   16.5470   -2.5480 C   0  0  1  0  0  0  0  0  0  0  0  0
    0.5120   16.2800   -4.0690 C   0  0  0  0  0  0  0  0  0  0  0  0
    1.0220   14.8240   -4.2170 C   0  0  0  0  0  0  0  0  0  0  0  0
    0.8260   14.1970   -2.8170 C   0  0  1  0  0  0  0  0  0  0  0  0
   -0.6820   13.7970   -2.7640 C   0  0  0  0  0  0  0  0  0  0  0  0
    1.7560   12.9910   -2.4630 C   0  0  2  0  0  0  0  0  0  0  0  0
    1.5860   11.7520   -3.3590 C   0  0  0  0  0  0  0  0  0  0  0  0
    0.5820   10.7540   -2.8850 C   0  0  0  0  0  0  0  0  0  0  0  0
    0.0530   10.7050   -1.6490 C   0  0  0  0  0  0  0  0  0  0  0  0
    0.5320   11.6590   -0.5480 C   0  0  1  0  0  0  0  0  0  0  0  0
    0.7820   10.8590    0.7580 C   0  0  0  0  0  0  0  0  0  0  0  0
   -0.4340   10.0410    1.1840 C   0  0  0  0  0  0  0  0  0  0  0  0
   -0.8450    9.0630    0.0860 C   0  0  2  0  0  0  0  0  0  0  0  0
    0.1850    8.0810   -0.0660 O   0  0  0  0  0  0  0  0  0  0  0  0
   -1.1130    9.7540   -1.2800 C   0  0  0  0  0  0  0  0  0  0  0  0
   -2.4140   10.5900   -1.1940 C   0  0  0  0  0  0  0  0  0  0  0  0
   -1.3800    8.6440   -2.3320 C   0  0  0  0  0  0  0  0  0  0  0  0
    1.7550   12.6000   -0.9300 C   0  0  1  0  0  0  0  0  0  0  0  0
    3.1010   11.8600   -0.6580 C   0  0  0  0  0  0  0  0  0  0  0  0
    1.7450   13.8630    0.0100 C   0  0  0  0  0  0  0  0  0  0  0  0
    0.9020   15.0670   -0.4530 C   0  0  0  0  0  0  0  0  0  0  0  0
    1.2100   15.4230   -1.9110 C   0  0  2  0  0  0  0  0  0  0  0  0
    2.7150   15.8510   -1.9910 C   0  0  0  0  0  0  0  0  0  0  0  0
    2.7587   18.5291   -1.8394 H   0  0  0  0  0  0  0  0  0  0  0  0
    2.4740   17.5253   -3.3016 H   0  0  0  0  0  0  0  0  0  0  0  0
    2.0161   19.2622   -3.3016 H   0  0  0  0  0  0  0  0  0  0  0  0
   -0.0300   18.6713   -2.6326 H   0  0  0  0  0  0  0  0  0  0  0  0
   -0.4861   18.2421   -0.3759 H   0  0  0  0  0  0  0  0  0  0  0  0
    1.0619   17.2894   -0.1768 H   0  0  0  0  0  0  0  0  0  0  0  0
    1.3612   20.1524   -0.9149 H   0  0  0  0  0  0  0  0  0  0  0  0
    0.7315   19.7941    0.7469 H   0  0  0  0  0  0  0  0  0  0  0  0
    3.1272   19.6805   -0.4537 H   0  0  0  0  0  0  0  0  0  0  0  0
    2.5395   19.0019    3.8861 H   0  0  0  0  0  0  0  0  0  0  0  0
    1.5608   20.0631    2.8170 H   0  0  0  0  0  0  0  0  0  0  0  0
    1.2848   18.2881    2.8170 H   0  0  0  0  0  0  0  0  0  0  0  0
    4.5728   19.1035    3.3131 H   0  0  0  0  0  0  0  0  0  0  0  0
    5.0888   18.2611    1.8129 H   0  0  0  0  0  0  0  0  0  0  0  0
    4.8736   20.0445    1.8129 H   0  0  0  0  0  0  0  0  0  0  0  0
   -0.6774   16.4936   -2.1720 H   0  0  0  0  0  0  0  0  0  0  0  0
   -0.4574   16.3952   -4.5759 H   0  0  0  0  0  0  0  0  0  0  0  0
    1.2149   16.9930   -4.5247 H   0  0  0  0  0  0  0  0  0  0  0  0
    0.4334   14.2813   -4.9713 H   0  0  0  0  0  0  0  0  0  0  0  0
    2.0695   14.7810   -4.5501 H   0  0  0  0  0  0  0  0  0  0  0  0
   -1.0022   13.7121   -1.7151 H   0  0  0  0  0  0  0  0  0  0  0  0
   -1.2835   14.5667   -3.2698 H   0  0  0  0  0  0  0  0  0  0  0  0
   -0.8230   12.8304   -3.2698 H   0  0  0  0  0  0  0  0  0  0  0  0
    2.7560   13.3893   -2.6899 H   0  0  0  0  0  0  0  0  0  0  0  0
    1.2787   12.0948   -4.3580 H   0  0  0  0  0  0  0  0  0  0  0  0
    2.5567   11.2346   -3.3494 H   0  0  0  0  0  0  0  0  0  0  0  0
    0.2466    9.9949   -3.6070 H   0  0  0  0  0  0  0  0  0  0  0  0
   -0.2845   12.3798   -0.3939 H   0  0  0  0  0  0  0  0  0  0  0  0
    1.6282   10.1751    0.5962 H   0  0  0  0  0  0  0  0  0  0  0  0
    0.9947   11.5833    1.5581 H   0  0  0  0  0  0  0  0  0  0  0  0
   -0.1869    9.4764    2.0951 H   0  0  0  0  0  0  0  0  0  0  0  0
   -1.2713   10.7288    1.3732 H   0  0  0  0  0  0  0  0  0  0  0  0
   -1.7935    8.5994    0.3950 H   0  0  0  0  0  0  0  0  0  0  0  0
    0.3270    7.9480   -1.0180 H   0  0  0  0  0  0  0  0  0  0  0  0
   -2.6735   10.7568   -0.1381 H   0  0  0  0  0  0  0  0  0  0  0  0
   -2.2607   11.5591   -1.6914 H   0  0  0  0  0  0  0  0  0  0  0  0
   -3.2318   10.0479   -1.6914 H   0  0  0  0  0  0  0  0  0  0  0  0
   -1.6074    7.6986   -1.8178 H   0  0  0  0  0  0  0  0  0  0  0  0
   -2.2341    8.9335   -2.9618 H   0  0  0  0  0  0  0  0  0  0  0  0
   -0.4876    8.5134   -2.9618 H   0  0  0  0  0  0  0  0  0  0  0  0
    3.2589   11.7732    0.4271 H   0  0  0  0  0  0  0  0  0  0  0  0
    3.0639   10.8555   -1.1047 H   0  0  0  0  0  0  0  0  0  0  0  0
    3.9293   12.4295   -1.1047 H   0  0  0  0  0  0  0  0  0  0  0  0
    1.3608   13.5451    0.9905 H   0  0  0  0  0  0  0  0  0  0  0  0
    2.7838   14.2247    0.0172 H   0  0  0  0  0  0  0  0  0  0  0  0
   -0.1650   14.8158   -0.3615 H   0  0  0  0  0  0  0  0  0  0  0  0
    1.1491   15.9325    0.1794 H   0  0  0  0  0  0  0  0  0  0  0  0
    3.1182   15.9657   -0.9740 H   0  0  0  0  0  0  0  0  0  0  0  0
    3.2874   15.0800   -2.5276 H   0  0  0  0  0  0  0  0  0  0  0  0
    2.7961   16.8078   -2.5276 H   0  0  0  0  0  0  0  0  0  0  0  0
  1  2  1  0
  2  3  1  0
  3  4  1  0
  4  5  1  0
  5  6  1  0
  6  7  1  0
  7  8  1  0
  7  9  1  0
  2 10  1  0
 10 11  1  0
 11 12  1  0
 12 13  1  0
 13 14  1  1
 13 15  1  0
 15 16  1  0
 16 17  1  0
 17 18  2  0
 18 19  1  0
 19 20  1  0
 20 21  1  0
 21 22  1  0
 22 23  1  0
 22 24  1  0
 24 25  1  0
 24 26  1  0
 19 27  1  0
 27 28  1  1
 27 29  1  0
 29 30  1  0
 30 31  1  0
 31 32  1  1
  7  5  1  0
 31 10  1  0
 31 13  1  0
 27 15  1  0
 24 18  1  0
  1 33  1  0
  1 34  1  0
  1 35  1  0
  2 36  1  6
  3 37  1  0
  3 38  1  0
  4 39  1  0
  4 40  1  0
  5 41  1  6
  8 42  1  0
  8 43  1  0
  8 44  1  0
  9 45  1  0
  9 46  1  0
  9 47  1  0
 10 48  1  1
 11 49  1  0
 11 50  1  0
 12 51  1  0
 12 52  1  0
 14 53  1  0
 14 54  1  0
 14 55  1  0
 15 56  1  6
 16 57  1  0
 16 58  1  0
 17 59  1  0
 19 60  1  1
 20 61  1  0
 20 62  1  0
 21 63  1  0
 21 64  1  0
 22 65  1  1
 23 66  1  0
 25 67  1  0
 25 68  1  0
 25 69  1  0
 26 70  1  0
 26 71  1  0
 26 72  1  0
 28 73  1  0
 28 74  1  0
 28 75  1  0
 29 76  1  0
 29 77  1  0
 30 78  1  0
 30 79  1  0
 32 80  1  0
 32 81  1  0
 32 82  1  0
M  END
>  <meeko>  (3) 
{"is_sidechain": [false], "intermolecular_energy": 2.731, "internal_energy": -0.839}

$$$$
EPH_relaxed_0001_pdb2pqr_Repair_192_r2_0001_out
     RDKit          3D

 82 86  0  0  0  0  0  0  0  0999 V2000
    2.0590   18.3940   -2.7460 C   0  0  0  0  0  0  0  0  0  0  0  0
    1.1260   17.7710   -1.7030 C   0  0  2  0  0  0  0  0  0  0  0  0
    1.7970   17.6560   -0.3190 C   0  0  0  0  0  0  0  0  0  0  0  0
    1.2540   18.6490    0.7120 C   0  0  0  0  0  0  0  0  0  0  0  0
    0.1990   19.5370    0.1240 C   0  0  2  0  0  0  0  0  0  0  0  0
   -0.6800   20.1380    1.0840 O   0  0  0  0  0  0  0  0  0  0  0  0
   -1.2830   19.2150    0.1630 C   0  0  0  0  0  0  0  0  0  0  0  0
   -1.7920   17.9620    0.8040 C   0  0  0  0  0  0  0  0  0  0  0  0
   -2.1830   19.8650   -0.8400 C   0  0  0  0  0  0  0  0  0  0  0  0
    0.6650   16.3970   -2.1740 C   0  0  1  0  0  0  0  0  0  0  0  0
    0.7340   16.2400   -3.7170 C   0  0  0  0  0  0  0  0  0  0  0  0
    1.1240   14.7660   -3.9990 C   0  0  0  0  0  0  0  0  0  0  0  0
    0.9430   14.0470   -2.6420 C   0  0  1  0  0  0  0  0  0  0  0  0
   -0.5870   13.7550   -2.5440 C   0  0  0  0  0  0  0  0  0  0  0  0
    1.7930   12.7530   -2.4260 C   0  0  2  0  0  0  0  0  0  0  0  0
    1.4900   11.6030   -3.4040 C   0  0  0  0  0  0  0  0  0  0  0  0
    0.4340   10.6470   -2.9560 C   0  0  0  0  0  0  0  0  0  0  0  0
   -0.0420   10.5390   -1.7010 C   0  0  0  0  0  0  0  0  0  0  0  0
    0.5580   11.3670   -0.5570 C   0  0  1  0  0  0  0  0  0  0  0  0
    0.8030   10.4510    0.6710 C   0  0  0  0  0  0  0  0  0  0  0  0
   -0.4510    9.6920    1.0940 C   0  0  0  0  0  0  0  0  0  0  0  0
   -0.9840    8.8360   -0.0520 C   0  0  2  0  0  0  0  0  0  0  0  0
   -0.0400    7.7960   -0.3280 O   0  0  0  0  0  0  0  0  0  0  0  0
   -1.2590    9.6500   -1.3470 C   0  0  0  0  0  0  0  0  0  0  0  0
   -2.4870   10.5690   -1.1340 C   0  0  0  0  0  0  0  0  0  0  0  0
   -1.6560    8.6480   -2.4650 C   0  0  0  0  0  0  0  0  0  0  0  0
    1.8300   12.2430   -0.9290 C   0  0  1  0  0  0  0  0  0  0  0  0
    3.1260   11.3890   -0.7810 C   0  0  0  0  0  0  0  0  0  0  0  0
    1.9580   13.4260    0.1020 C   0  0  0  0  0  0  0  0  0  0  0  0
    1.1900   14.7210   -0.2260 C   0  0  0  0  0  0  0  0  0  0  0  0
    1.4600   15.1670   -1.6670 C   0  0  2  0  0  0  0  0  0  0  0  0
    2.9880   15.4900   -1.7900 C   0  0  0  0  0  0  0  0  0  0  0  0
    2.8696   18.9353   -2.2361 H   0  0  0  0  0  0  0  0  0  0  0  0
    2.4875   17.6001   -3.3754 H   0  0  0  0  0  0  0  0  0  0  0  0
    1.4899   19.0940   -3.3754 H   0  0  0  0  0  0  0  0  0  0  0  0
    0.2578   18.4377   -1.5945 H   0  0  0  0  0  0  0  0  0  0  0  0
    1.6354   16.6367    0.0618 H   0  0  0  0  0  0  0  0  0  0  0  0
    2.8633   17.8876   -0.4582 H   0  0  0  0  0  0  0  0  0  0  0  0
    0.8199   18.0882    1.5529 H   0  0  0  0  0  0  0  0  0  0  0  0
    2.0871   19.2831    1.0494 H   0  0  0  0  0  0  0  0  0  0  0  0
    0.8691   19.8284   -0.6983 H   0  0  0  0  0  0  0  0  0  0  0  0
   -1.7495   18.0665    1.8982 H   0  0  0  0  0  0  0  0  0  0  0  0
   -2.8324   17.7873    0.4925 H   0  0  0  0  0  0  0  0  0  0  0  0
   -1.1682   17.1112    0.4925 H   0  0  0  0  0  0  0  0  0  0  0  0
   -2.9672   20.4314   -0.3163 H   0  0  0  0  0  0  0  0  0  0  0  0
   -1.5959   20.5489   -1.4706 H   0  0  0  0  0  0  0  0  0  0  0  0
   -2.6476   19.0927   -1.4706 H   0  0  0  0  0  0  0  0  0  0  0  0
   -0.3506   16.3889   -1.7516 H   0  0  0  0  0  0  0  0  0  0  0  0
   -0.2451   16.4652   -4.1649 H   0  0  0  0  0  0  0  0  0  0  0  0
    1.4686   16.9334   -4.1524 H   0  0  0  0  0  0  0  0  0  0  0  0
    0.4626   14.3285   -4.7613 H   0  0  0  0  0  0  0  0  0  0  0  0
    2.1493   14.6730   -4.3864 H   0  0  0  0  0  0  0  0  0  0  0  0
   -0.8825   13.6986   -1.4859 H   0  0  0  0  0  0  0  0  0  0  0  0
   -1.1468   14.5625   -3.0385 H   0  0  0  0  0  0  0  0  0  0  0  0
   -0.8101   12.7981   -3.0385 H   0  0  0  0  0  0  0  0  0  0  0  0
    2.8093   13.0952   -2.6711 H   0  0  0  0  0  0  0  0  0  0  0  0
    1.1663   12.0445   -4.3581 H   0  0  0  0  0  0  0  0  0  0  0  0
    2.4178   11.0173   -3.4822 H   0  0  0  0  0  0  0  0  0  0  0  0
    0.0090    9.9741   -3.7154 H   0  0  0  0  0  0  0  0  0  0  0  0
   -0.1923   12.1319   -0.3082 H   0  0  0  0  0  0  0  0  0  0  0  0
    1.5871    9.7226    0.4168 H   0  0  0  0  0  0  0  0  0  0  0  0
    1.1042   11.0931    1.5118 H   0  0  0  0  0  0  0  0  0  0  0  0
   -0.2072    9.0408    1.9463 H   0  0  0  0  0  0  0  0  0  0  0  0
   -1.2244   10.4217    1.3759 H   0  0  0  0  0  0  0  0  0  0  0  0
   -1.9507    8.4199    0.2680 H   0  0  0  0  0  0  0  0  0  0  0  0
    0.3270    7.4990    0.5220 H   0  0  0  0  0  0  0  0  0  0  0  0
   -2.6636   10.7011   -0.0563 H   0  0  0  0  0  0  0  0  0  0  0  0
   -2.2967   11.5484   -1.5972 H   0  0  0  0  0  0  0  0  0  0  0  0
   -3.3730   10.1103   -1.5972 H   0  0  0  0  0  0  0  0  0  0  0  0
   -2.0248    7.7173   -2.0092 H   0  0  0  0  0  0  0  0  0  0  0  0
   -2.4472    9.0893   -3.0889 H   0  0  0  0  0  0  0  0  0  0  0  0
   -0.7772    8.4277   -3.0889 H   0  0  0  0  0  0  0  0  0  0  0  0
    3.3486   11.2423    0.2862 H   0  0  0  0  0  0  0  0  0  0  0  0
    2.9777   10.4111   -1.2624 H   0  0  0  0  0  0  0  0  0  0  0  0
    3.9661   11.9110   -1.2624 H   0  0  0  0  0  0  0  0  0  0  0  0
    1.5946   13.0609    1.0739 H   0  0  0  0  0  0  0  0  0  0  0  0
    3.0207   13.7096    0.0835 H   0  0  0  0  0  0  0  0  0  0  0  0
    0.1120   14.5420   -0.1004 H   0  0  0  0  0  0  0  0  0  0  0  0
    1.5300   15.5137    0.4567 H   0  0  0  0  0  0  0  0  0  0  0  0
    3.4253   15.5824   -0.7849 H   0  0  0  0  0  0  0  0  0  0  0  0
    3.4916   14.6785   -2.3357 H   0  0  0  0  0  0  0  0  0  0  0  0
    3.1200   16.4359   -2.3357 H   0  0  0  0  0  0  0  0  0  0  0  0
  1  2  1  0
  2  3  1  0
  3  4  1  0
  4  5  1  0
  5  6  1  0
  6  7  1  0
  7  8  1  0
  7  9  1  0
  2 10  1  0
 10 11  1  0
 11 12  1  0
 12 13  1  0
 13 14  1  1
 13 15  1  0
 15 16  1  0
 16 17  1  0
 17 18  2  0
 18 19  1  0
 19 20  1  0
 20 21  1  0
 21 22  1  0
 22 23  1  0
 22 24  1  0
 24 25  1  0
 24 26  1  0
 19 27  1  0
 27 28  1  6
 27 29  1  0
 29 30  1  0
 30 31  1  0
 31 32  1  1
  7  5  1  0
 31 10  1  0
 31 13  1  0
 27 15  1  0
 24 18  1  0
  1 33  1  0
  1 34  1  0
  1 35  1  0
  2 36  1  1
  3 37  1  0
  3 38  1  0
  4 39  1  0
  4 40  1  0
  5 41  1  6
  8 42  1  0
  8 43  1  0
  8 44  1  0
  9 45  1  0
  9 46  1  0
  9 47  1  0
 10 48  1  1
 11 49  1  0
 11 50  1  0
 12 51  1  0
 12 52  1  0
 14 53  1  0
 14 54  1  0
 14 55  1  0
 15 56  1  6
 16 57  1  0
 16 58  1  0
 17 59  1  0
 19 60  1  1
 20 61  1  0
 20 62  1  0
 21 63  1  0
 21 64  1  0
 22 65  1  1
 23 66  1  0
 25 67  1  0
 25 68  1  0
 25 69  1  0
 26 70  1  0
 26 71  1  0
 26 72  1  0
 28 73  1  0
 28 74  1  0
 28 75  1  0
 29 76  1  0
 29 77  1  0
 30 78  1  0
 30 79  1  0
 32 80  1  0
 32 81  1  0
 32 82  1  0
M  END
>  <meeko>  (4) 
{"is_sidechain": [false], "intermolecular_energy": 2.731, "internal_energy": -0.839}

$$$$
EPH_relaxed_0001_pdb2pqr_Repair_192_r2_0001_out
     RDKit          3D

 82 86  0  0  0  0  0  0  0  0999 V2000
    0.4190    9.0910   -2.3220 C   0  0  0  0  0  0  0  0  0  0  0  0
    1.1550   10.2780   -2.9510 C   0  0  2  0  0  0  0  0  0  0  0  0
    2.6540   10.2880   -2.5920 C   0  0  0  0  0  0  0  0  0  0  0  0
    3.5630   10.6890   -3.7570 C   0  0  0  0  0  0  0  0  0  0  0  0
    4.9760   10.9090   -3.3080 C   0  0  2  0  0  0  0  0  0  0  0  0
    5.5950   12.0900   -3.8320 O   0  0  0  0  0  0  0  0  0  0  0  0
    6.1710   10.8390   -4.2400 C   0  0  0  0  0  0  0  0  0  0  0  0
    6.0070   10.5400   -5.6970 C   0  0  0  0  0  0  0  0  0  0  0  0
    7.5230   10.5780   -3.6530 C   0  0  0  0  0  0  0  0  0  0  0  0
    0.5060   11.5850   -2.5090 C   0  0  1  0  0  0  0  0  0  0  0  0
   -0.8080   11.3600   -1.7140 C   0  0  0  0  0  0  0  0  0  0  0  0
   -0.8780   12.4770   -0.6420 C   0  0  0  0  0  0  0  0  0  0  0  0
    0.2110   13.4920   -1.0630 C   0  0  1  0  0  0  0  0  0  0  0  0
   -0.4540   14.3520   -2.1830 C   0  0  0  0  0  0  0  0  0  0  0  0
    0.8020   14.3840    0.0770 C   0  0  2  0  0  0  0  0  0  0  0  0
   -0.2090   15.3170    0.7650 C   0  0  0  0  0  0  0  0  0  0  0  0
   -0.3430   16.6740    0.1560 C   0  0  0  0  0  0  0  0  0  0  0  0
    0.5170   17.2260   -0.7190 C   0  0  0  0  0  0  0  0  0  0  0  0
    1.8160   16.5080   -1.1070 C   0  0  1  0  0  0  0  0  0  0  0  0
    2.9990   17.5110   -1.0500 C   0  0  0  0  0  0  0  0  0  0  0  0
    2.7490   18.7590   -1.8910 C   0  0  0  0  0  0  0  0  0  0  0  0
    1.4800   19.4770   -1.4380 C   0  0  2  0  0  0  0  0  0  0  0  0
    1.6910   19.9970   -0.1220 O   0  0  0  0  0  0  0  0  0  0  0  0
    0.2230   18.5630   -1.4440 C   0  0  0  0  0  0  0  0  0  0  0  0
   -0.1810   18.2450   -2.9050 C   0  0  0  0  0  0  0  0  0  0  0  0
   -0.9550   19.3680   -0.8330 C   0  0  0  0  0  0  0  0  0  0  0  0
    2.1220   15.1590   -0.3250 C   0  0  1  0  0  0  0  0  0  0  0  0
    2.8760   15.4720    1.0030 C   0  0  0  0  0  0  0  0  0  0  0  0
    3.0960   14.2730   -1.1900 C   0  0  0  0  0  0  0  0  0  0  0  0
    2.4460   13.3240   -2.2150 C   0  0  0  0  0  0  0  0  0  0  0  0
    1.3250   12.5040   -1.5690 C   0  0  2  0  0  0  0  0  0  0  0  0
    1.9670   11.6120   -0.4530 C   0  0  0  0  0  0  0  0  0  0  0  0
    0.4672    9.1688   -1.2258 H   0  0  0  0  0  0  0  0  0  0  0  0
   -0.6327    9.0992   -2.6442 H   0  0  0  0  0  0  0  0  0  0  0  0
    0.8939    8.1526   -2.6442 H   0  0  0  0  0  0  0  0  0  0  0  0
    1.0774   10.1741   -4.0433 H   0  0  0  0  0  0  0  0  0  0  0  0
    2.8093   11.0011   -1.7689 H   0  0  0  0  0  0  0  0  0  0  0  0
    2.9246    9.2591   -2.3124 H   0  0  0  0  0  0  0  0  0  0  0  0
    3.5493    9.8887   -4.5115 H   0  0  0  0  0  0  0  0  0  0  0  0
    3.1858   11.6333   -4.1767 H   0  0  0  0  0  0  0  0  0  0  0  0
    4.7664   10.4312   -2.3396 H   0  0  0  0  0  0  0  0  0  0  0  0
    5.4812    9.5814   -5.8177 H   0  0  0  0  0  0  0  0  0  0  0  0
    5.4222   11.3413   -6.1722 H   0  0  0  0  0  0  0  0  0  0  0  0
    6.9971   10.4775   -6.1722 H   0  0  0  0  0  0  0  0  0  0  0  0
    7.4549   10.5912   -2.5552 H   0  0  0  0  0  0  0  0  0  0  0  0
    7.8836    9.5937   -3.9862 H   0  0  0  0  0  0  0  0  0  0  0  0
    8.2241   11.3574   -3.9862 H   0  0  0  0  0  0  0  0  0  0  0  0
    0.3785   12.0681   -3.4890 H   0  0  0  0  0  0  0  0  0  0  0  0
   -1.6748   11.4268   -2.3880 H   0  0  0  0  0  0  0  0  0  0  0  0
   -0.8224   10.3636   -1.2481 H   0  0  0  0  0  0  0  0  0  0  0  0
   -1.8705   12.9512   -0.6397 H   0  0  0  0  0  0  0  0  0  0  0  0
   -0.7160   12.0897    0.3747 H   0  0  0  0  0  0  0  0  0  0  0  0
   -1.0654   15.1427   -1.7238 H   0  0  0  0  0  0  0  0  0  0  0  0
    0.3279   14.8091   -2.8073 H   0  0  0  0  0  0  0  0  0  0  0  0
   -1.0931   13.7103   -2.8073 H   0  0  0  0  0  0  0  0  0  0  0  0
    1.0868   13.6399    0.8354 H   0  0  0  0  0  0  0  0  0  0  0  0
   -1.1955   14.8315    0.7332 H   0  0  0  0  0  0  0  0  0  0  0  0
    0.1709   15.4777    1.7847 H   0  0  0  0  0  0  0  0  0  0  0  0
   -1.2186   17.2726    0.4474 H   0  0  0  0  0  0  0  0  0  0  0  0
    1.6732   16.1575   -2.1398 H   0  0  0  0  0  0  0  0  0  0  0  0
    3.1530   17.8155   -0.0043 H   0  0  0  0  0  0  0  0  0  0  0  0
    3.8858   17.0049   -1.4591 H   0  0  0  0  0  0  0  0  0  0  0  0
    3.6055   19.4412   -1.7863 H   0  0  0  0  0  0  0  0  0  0  0  0
    2.6250   18.4557   -2.9411 H   0  0  0  0  0  0  0  0  0  0  0  0
    1.2825   20.2849   -2.1580 H   0  0  0  0  0  0  0  0  0  0  0  0
    2.1400   20.8540   -0.2120 H   0  0  0  0  0  0  0  0  0  0  0  0
   -1.0454   17.5646   -2.9066 H   0  0  0  0  0  0  0  0  0  0  0  0
   -0.4478   19.1780   -3.4230 H   0  0  0  0  0  0  0  0  0  0  0  0
    0.6632   17.7665   -3.4230 H   0  0  0  0  0  0  0  0  0  0  0  0
   -0.8962   19.3278    0.2647 H   0  0  0  0  0  0  0  0  0  0  0  0
   -0.8951   20.4149   -1.1653 H   0  0  0  0  0  0  0  0  0  0  0  0
   -1.9086   18.9318   -1.1653 H   0  0  0  0  0  0  0  0  0  0  0  0
    2.2374   15.2069    1.8585 H   0  0  0  0  0  0  0  0  0  0  0  0
    3.8057   14.8855    1.0438 H   0  0  0  0  0  0  0  0  0  0  0  0
    3.1170   16.5445    1.0438 H   0  0  0  0  0  0  0  0  0  0  0  0
    3.7625   14.9524   -1.7415 H   0  0  0  0  0  0  0  0  0  0  0  0
    3.6028   13.6146   -0.4692 H   0  0  0  0  0  0  0  0  0  0  0  0
    2.0273   13.9183   -3.0405 H   0  0  0  0  0  0  0  0  0  0  0  0
    3.2151   12.6326   -2.5898 H   0  0  0  0  0  0  0  0  0  0  0  0
    1.6856   12.0029    0.5359 H   0  0  0  0  0  0  0  0  0  0  0  0
    1.6042   10.5786   -0.5556 H   0  0  0  0  0  0  0  0  0  0  0  0
    3.0621   11.6280   -0.5556 H   0  0  0  0  0  0  0  0  0  0  0  0
  1  2  1  0
  2  3  1  0
  3  4  1  0
  4  5  1  0
  5  6  1  0
  6  7  1  0
  7  8  1  0
  7  9  1  0
  2 10  1  0
 10 11  1  0
 11 12  1  0
 12 13  1  0
 13 14  1  6
 13 15  1  0
 15 16  1  0
 16 17  1  0
 17 18  2  0
 18 19  1  0
 19 20  1  0
 20 21  1  0
 21 22  1  0
 22 23  1  0
 22 24  1  0
 24 25  1  0
 24 26  1  0
 19 27  1  0
 27 28  1  1
 27 29  1  0
 29 30  1  0
 30 31  1  0
 31 32  1  1
  7  5  1  0
 31 10  1  0
 31 13  1  0
 27 15  1  0
 24 18  1  0
  1 33  1  0
  1 34  1  0
  1 35  1  0
  2 36  1  6
  3 37  1  0
  3 38  1  0
  4 39  1  0
  4 40  1  0
  5 41  1  1
  8 42  1  0
  8 43  1  0
  8 44  1  0
  9 45  1  0
  9 46  1  0
  9 47  1  0
 10 48  1  6
 11 49  1  0
 11 50  1  0
 12 51  1  0
 12 52  1  0
 14 53  1  0
 14 54  1  0
 14 55  1  0
 15 56  1  1
 16 57  1  0
 16 58  1  0
 17 59  1  0
 19 60  1  6
 20 61  1  0
 20 62  1  0
 21 63  1  0
 21 64  1  0
 22 65  1  6
 23 66  1  0
 25 67  1  0
 25 68  1  0
 25 69  1  0
 26 70  1  0
 26 71  1  0
 26 72  1  0
 28 73  1  0
 28 74  1  0
 28 75  1  0
 29 76  1  0
 29 77  1  0
 30 78  1  0
 30 79  1  0
 32 80  1  0
 32 81  1  0
 32 82  1  0
M  END
>  <meeko>  (5) 
{"is_sidechain": [false], "intermolecular_energy": 2.731, "internal_energy": -0.839}

$$$$
EPH_relaxed_0001_pdb2pqr_Repair_192_r2_0001_out
     RDKit          3D

 82 86  0  0  0  0  0  0  0  0999 V2000
   -0.1610    9.7700   -2.6680 C   0  0  0  0  0  0  0  0  0  0  0  0
    1.0390   10.6690   -2.9820 C   0  0  2  0  0  0  0  0  0  0  0  0
    2.3480    9.8650   -3.1150 C   0  0  0  0  0  0  0  0  0  0  0  0
    3.3630   10.4970   -4.0720 C   0  0  0  0  0  0  0  0  0  0  0  0
    4.7180   10.6170   -3.4420 C   0  0  2  0  0  0  0  0  0  0  0  0
    5.3380   11.9000   -3.5970 O   0  0  0  0  0  0  0  0  0  0  0  0
    5.9970   10.7950   -4.2380 C   0  0  0  0  0  0  0  0  0  0  0  0
    5.9830   10.8620   -5.7330 C   0  0  0  0  0  0  0  0  0  0  0  0
    7.2960   10.4150   -3.5980 C   0  0  0  0  0  0  0  0  0  0  0  0
    1.1880   11.7320   -1.9000 C   0  0  1  0  0  0  0  0  0  0  0  0
    2.3750   11.4470   -0.9420 C   0  0  0  0  0  0  0  0  0  0  0  0
    2.9720   12.8220   -0.5480 C   0  0  0  0  0  0  0  0  0  0  0  0
    1.9200   13.8530   -1.0170 C   0  0  1  0  0  0  0  0  0  0  0  0
    0.8360   13.8610    0.1070 C   0  0  0  0  0  0  0  0  0  0  0  0
    2.4490   15.2930   -1.3170 C   0  0  2  0  0  0  0  0  0  0  0  0
    3.0570   16.0300   -0.1100 C   0  0  0  0  0  0  0  0  0  0  0  0
    2.0970   16.8530    0.6840 C   0  0  0  0  0  0  0  0  0  0  0  0
    0.8670   17.2250    0.2820 C   0  0  0  0  0  0  0  0  0  0  0  0
    0.3660   16.8950   -1.1300 C   0  0  1  0  0  0  0  0  0  0  0  0
   -0.2860   18.1560   -1.7550 C   0  0  0  0  0  0  0  0  0  0  0  0
   -1.3800   18.7490   -0.8720 C   0  0  0  0  0  0  0  0  0  0  0  0
   -0.8300   19.1170    0.5040 C   0  0  2  0  0  0  0  0  0  0  0  0
    0.1000   20.1940    0.3550 O   0  0  0  0  0  0  0  0  0  0  0  0
   -0.1400   17.9260    1.2270 C   0  0  0  0  0  0  0  0  0  0  0  0
   -1.2070   16.8890    1.6560 C   0  0  0  0  0  0  0  0  0  0  0  0
    0.4930   18.4660    2.5370 C   0  0  0  0  0  0  0  0  0  0  0  0
    1.4240   16.2110   -2.0990 C   0  0  1  0  0  0  0  0  0  0  0  0
    2.2680   17.3050   -2.8220 C   0  0  0  0  0  0  0  0  0  0  0  0
    0.6560   15.4250   -3.2260 C   0  0  0  0  0  0  0  0  0  0  0  0
    0.2650   13.9680   -2.9140 C   0  0  0  0  0  0  0  0  0  0  0  0
    1.4620   13.1850   -2.3640 C   0  0  2  0  0  0  0  0  0  0  0  0
    2.5590   13.1420   -3.4810 C   0  0  0  0  0  0  0  0  0  0  0  0
   -0.2781    9.6823   -1.5778 H   0  0  0  0  0  0  0  0  0  0  0  0
   -1.0718   10.2099   -3.1004 H   0  0  0  0  0  0  0  0  0  0  0  0
    0.0052    8.7723   -3.1004 H   0  0  0  0  0  0  0  0  0  0  0  0
    0.8477   11.1501   -3.9525 H   0  0  0  0  0  0  0  0  0  0  0  0
    2.8105    9.7870   -2.1200 H   0  0  0  0  0  0  0  0  0  0  0  0
    2.0814    8.8825   -3.5315 H   0  0  0  0  0  0  0  0  0  0  0  0
    3.4426    9.8700   -4.9723 H   0  0  0  0  0  0  0  0  0  0  0  0
    3.0119   11.5081   -4.3259 H   0  0  0  0  0  0  0  0  0  0  0  0
    4.4369    9.9120   -2.6458 H   0  0  0  0  0  0  0  0  0  0  0  0
    5.7677   11.8925   -6.0518 H   0  0  0  0  0  0  0  0  0  0  0  0
    6.9647   10.5551   -6.1230 H   0  0  0  0  0  0  0  0  0  0  0  0
    5.2064   10.1877   -6.1230 H   0  0  0  0  0  0  0  0  0  0  0  0
    7.1886   10.4464   -2.5037 H   0  0  0  0  0  0  0  0  0  0  0  0
    7.5747    9.3977   -3.9100 H   0  0  0  0  0  0  0  0  0  0  0  0
    8.0791   11.1217   -3.9100 H   0  0  0  0  0  0  0  0  0  0  0  0
    0.1922   11.6654   -1.4375 H   0  0  0  0  0  0  0  0  0  0  0  0
    2.0196   10.9175   -0.0457 H   0  0  0  0  0  0  0  0  0  0  0  0
    3.1311   10.8128   -1.4279 H   0  0  0  0  0  0  0  0  0  0  0  0
    3.1183   12.8843    0.5404 H   0  0  0  0  0  0  0  0  0  0  0  0
    3.9578   12.9949   -1.0045 H   0  0  0  0  0  0  0  0  0  0  0  0
    1.3279   13.8574    1.0909 H   0  0  0  0  0  0  0  0  0  0  0  0
    0.2149   14.7638    0.0110 H   0  0  0  0  0  0  0  0  0  0  0  0
    0.2016   12.9675    0.0110 H   0  0  0  0  0  0  0  0  0  0  0  0
    3.2880   15.0977   -2.0010 H   0  0  0  0  0  0  0  0  0  0  0  0
    3.4963   15.2777    0.5616 H   0  0  0  0  0  0  0  0  0  0  0  0
    3.7933   16.7351   -0.5231 H   0  0  0  0  0  0  0  0  0  0  0  0
    2.4221   17.1833    1.6816 H   0  0  0  0  0  0  0  0  0  0  0  0
   -0.3898   16.1051   -1.0081 H   0  0  0  0  0  0  0  0  0  0  0  0
    0.4938   18.9165   -1.9086 H   0  0  0  0  0  0  0  0  0  0  0  0
   -0.7512   17.8547   -2.7052 H   0  0  0  0  0  0  0  0  0  0  0  0
   -1.7806   19.6533   -1.3533 H   0  0  0  0  0  0  0  0  0  0  0  0
   -2.1737   17.9982   -0.7439 H   0  0  0  0  0  0  0  0  0  0  0  0
   -1.6831   19.4127    1.1323 H   0  0  0  0  0  0  0  0  0  0  0  0
    0.9680   19.8070    0.1480 H   0  0  0  0  0  0  0  0  0  0  0  0
   -1.2536   16.8437    2.7541 H   0  0  0  0  0  0  0  0  0  0  0  0
   -2.1886   17.1874    1.2593 H   0  0  0  0  0  0  0  0  0  0  0  0
   -0.9367   15.8993    1.2593 H   0  0  0  0  0  0  0  0  0  0  0  0
   -0.0235   18.0254    3.4025 H   0  0  0  0  0  0  0  0  0  0  0  0
    1.5585   18.1944    2.5685 H   0  0  0  0  0  0  0  0  0  0  0  0
    0.3927   19.5610    2.5685 H   0  0  0  0  0  0  0  0  0  0  0  0
    2.7601   17.9429   -2.0731 H   0  0  0  0  0  0  0  0  0  0  0  0
    3.0307   16.8233   -3.4514 H   0  0  0  0  0  0  0  0  0  0  0  0
    1.6085   17.9205   -3.4514 H   0  0  0  0  0  0  0  0  0  0  0  0
   -0.2691   15.9780   -3.4459 H   0  0  0  0  0  0  0  0  0  0  0  0
    1.3645   15.3594   -4.0649 H   0  0  0  0  0  0  0  0  0  0  0  0
   -0.5419   13.9641   -2.1664 H   0  0  0  0  0  0  0  0  0  0  0  0
   -0.0706   13.4877   -3.8450 H   0  0  0  0  0  0  0  0  0  0  0  0
    3.5549   13.1030   -3.0155 H   0  0  0  0  0  0  0  0  0  0  0  0
    2.4111   12.2490   -4.1060 H   0  0  0  0  0  0  0  0  0  0  0  0
    2.4815   14.0439   -4.1060 H   0  0  0  0  0  0  0  0  0  0  0  0
  1  2  1  0
  2  3  1  0
  3  4  1  0
  4  5  1  0
  5  6  1  0
  6  7  1  0
  7  8  1  0
  7  9  1  0
  2 10  1  0
 10 11  1  0
 11 12  1  0
 12 13  1  0
 13 14  1  1
 13 15  1  0
 15 16  1  0
 16 17  1  0
 17 18  2  0
 18 19  1  0
 19 20  1  0
 20 21  1  0
 21 22  1  0
 22 23  1  0
 22 24  1  0
 24 25  1  0
 24 26  1  0
 19 27  1  0
 27 28  1  6
 27 29  1  0
 29 30  1  0
 30 31  1  0
 31 32  1  6
  7  5  1  0
 31 10  1  0
 31 13  1  0
 27 15  1  0
 24 18  1  0
  1 33  1  0
  1 34  1  0
  1 35  1  0
  2 36  1  6
  3 37  1  0
  3 38  1  0
  4 39  1  0
  4 40  1  0
  5 41  1  1
  8 42  1  0
  8 43  1  0
  8 44  1  0
  9 45  1  0
  9 46  1  0
  9 47  1  0
 10 48  1  1
 11 49  1  0
 11 50  1  0
 12 51  1  0
 12 52  1  0
 14 53  1  0
 14 54  1  0
 14 55  1  0
 15 56  1  6
 16 57  1  0
 16 58  1  0
 17 59  1  0
 19 60  1  1
 20 61  1  0
 20 62  1  0
 21 63  1  0
 21 64  1  0
 22 65  1  1
 23 66  1  0
 25 67  1  0
 25 68  1  0
 25 69  1  0
 26 70  1  0
 26 71  1  0
 26 72  1  0
 28 73  1  0
 28 74  1  0
 28 75  1  0
 29 76  1  0
 29 77  1  0
 30 78  1  0
 30 79  1  0
 32 80  1  0
 32 81  1  0
 32 82  1  0
M  END
>  <meeko>  (6) 
{"is_sidechain": [false], "intermolecular_energy": 2.731, "internal_energy": -0.839}

$$$$
EPH_relaxed_0001_pdb2pqr_Repair_192_r2_0001_out
     RDKit          3D

 82 86  0  0  0  0  0  0  0  0999 V2000
    1.2890   10.4510   -0.3970 C   0  0  0  0  0  0  0  0  0  0  0  0
    1.6560   10.8450   -1.8310 C   0  0  2  0  0  0  0  0  0  0  0  0
    2.9080   10.0990   -2.3350 C   0  0  0  0  0  0  0  0  0  0  0  0
    3.6590   10.8390   -3.4460 C   0  0  0  0  0  0  0  0  0  0  0  0
    5.1150   10.9890   -3.1250 C   0  0  2  0  0  0  0  0  0  0  0  0
    5.7500   12.1190   -3.7370 O   0  0  0  0  0  0  0  0  0  0  0  0
    6.2190   10.8270   -4.1530 C   0  0  0  0  0  0  0  0  0  0  0  0
    5.9140   10.4990   -5.5810 C   0  0  0  0  0  0  0  0  0  0  0  0
    7.6010   10.5050   -3.6750 C   0  0  0  0  0  0  0  0  0  0  0  0
    1.8770   12.3500   -1.9150 C   0  0  1  0  0  0  0  0  0  0  0  0
    1.8310   12.8800   -3.3730 C   0  0  0  0  0  0  0  0  0  0  0  0
    1.1910   14.2910   -3.3160 C   0  0  0  0  0  0  0  0  0  0  0  0
    1.1960   14.6610   -1.8150 C   0  0  1  0  0  0  0  0  0  0  0  0
    2.6450   15.1690   -1.5320 C   0  0  0  0  0  0  0  0  0  0  0  0
    0.1210   15.6990   -1.3550 C   0  0  2  0  0  0  0  0  0  0  0  0
    0.2430   17.0930   -1.9960 C   0  0  0  0  0  0  0  0  0  0  0  0
    1.0940   18.0650   -1.2490 C   0  0  0  0  0  0  0  0  0  0  0  0
    1.5030   17.9290    0.0260 C   0  0  0  0  0  0  0  0  0  0  0  0
    1.0260   16.7510    0.8840 C   0  0  1  0  0  0  0  0  0  0  0  0
    0.5800   17.2710    2.2760 C   0  0  0  0  0  0  0  0  0  0  0  0
    1.6630   18.0950    2.9670 C   0  0  0  0  0  0  0  0  0  0  0  0
    2.0690   19.2900    2.1080 C   0  0  2  0  0  0  0  0  0  0  0  0
    0.9630   20.1940    2.0230 O   0  0  0  0  0  0  0  0  0  0  0  0
    2.5280   18.8890    0.6780 C   0  0  0  0  0  0  0  0  0  0  0  0
    3.8940   18.1630    0.7540 C   0  0  0  0  0  0  0  0  0  0  0  0
    2.7740   20.1940   -0.1270 C   0  0  0  0  0  0  0  0  0  0  0  0
   -0.0560   15.7980    0.2140 C   0  0  1  0  0  0  0  0  0  0  0  0
   -1.4880   16.3590    0.4670 C   0  0  0  0  0  0  0  0  0  0  0  0
   -0.0010   14.3880    0.9120 C   0  0  0  0  0  0  0  0  0  0  0  0
    0.9970   13.3650    0.3370 C   0  0  0  0  0  0  0  0  0  0  0  0
    0.8590   13.2610   -1.1850 C   0  0  2  0  0  0  0  0  0  0  0  0
   -0.5820   12.7310   -1.4990 C   0  0  0  0  0  0  0  0  0  0  0  0
    1.8629   11.0671    0.3108 H   0  0  0  0  0  0  0  0  0  0  0  0
    0.2131   10.6136   -0.2360 H   0  0  0  0  0  0  0  0  0  0  0  0
    1.5275    9.3893   -0.2360 H   0  0  0  0  0  0  0  0  0  0  0  0
    0.8161   10.5559   -2.4799 H   0  0  0  0  0  0  0  0  0  0  0  0
    3.5936    9.9581   -1.4864 H   0  0  0  0  0  0  0  0  0  0  0  0
    2.5645    9.1441   -2.7595 H   0  0  0  0  0  0  0  0  0  0  0  0
    3.5570   10.2729   -4.3836 H   0  0  0  0  0  0  0  0  0  0  0  0
    3.2237   11.8445   -3.5437 H   0  0  0  0  0  0  0  0  0  0  0  0
    4.9645   10.5494   -2.1280 H   0  0  0  0  0  0  0  0  0  0  0  0
    5.1654    9.6940   -5.6205 H   0  0  0  0  0  0  0  0  0  0  0  0
    5.5185   11.3926   -6.0861 H   0  0  0  0  0  0  0  0  0  0  0  0
    6.8339   10.1694   -6.0861 H   0  0  0  0  0  0  0  0  0  0  0  0
    7.6170   10.5013   -2.5751 H   0  0  0  0  0  0  0  0  0  0  0  0
    7.8968    9.5139   -4.0494 H   0  0  0  0  0  0  0  0  0  0  0  0
    8.3044   11.2633   -4.0494 H   0  0  0  0  0  0  0  0  0  0  0  0
    2.8603   12.4188   -1.4269 H   0  0  0  0  0  0  0  0  0  0  0  0
    2.8487   12.9421   -3.7858 H   0  0  0  0  0  0  0  0  0  0  0  0
    1.2479   12.2076   -4.0195 H   0  0  0  0  0  0  0  0  0  0  0  0
    1.7869   15.0114   -3.8955 H   0  0  0  0  0  0  0  0  0  0  0  0
    0.1789   14.3077   -3.7464 H   0  0  0  0  0  0  0  0  0  0  0  0
    2.8079   15.2261   -0.4456 H   0  0  0  0  0  0  0  0  0  0  0  0
    3.3711   14.4718   -1.9755 H   0  0  0  0  0  0  0  0  0  0  0  0
    2.7768   16.1670   -1.9755 H   0  0  0  0  0  0  0  0  0  0  0  0
   -0.8086   15.2669   -1.7540 H   0  0  0  0  0  0  0  0  0  0  0  0
    0.6714   16.9686   -3.0015 H   0  0  0  0  0  0  0  0  0  0  0  0
   -0.7721   17.5167   -1.9994 H   0  0  0  0  0  0  0  0  0  0  0  0
    1.4143   18.9698   -1.7863 H   0  0  0  0  0  0  0  0  0  0  0  0
    1.8943   16.0848    0.9946 H   0  0  0  0  0  0  0  0  0  0  0  0
   -0.3136   17.8996    2.1480 H   0  0  0  0  0  0  0  0  0  0  0  0
    0.3717   16.3956    2.9086 H   0  0  0  0  0  0  0  0  0  0  0  0
    1.2787   18.4586    3.9314 H   0  0  0  0  0  0  0  0  0  0  0  0
    2.5456   17.4569    3.1213 H   0  0  0  0  0  0  0  0  0  0  0  0
    2.9342   19.7659    2.5928 H   0  0  0  0  0  0  0  0  0  0  0  0
    0.9150   20.5150    1.1070 H   0  0  0  0  0  0  0  0  0  0  0  0
    4.1724   18.0150    1.8078 H   0  0  0  0  0  0  0  0  0  0  0  0
    3.8183   17.1861    0.2541 H   0  0  0  0  0  0  0  0  0  0  0  0
    4.6614   18.7723    0.2541 H   0  0  0  0  0  0  0  0  0  0  0  0
    2.9317   21.0304    0.5698 H   0  0  0  0  0  0  0  0  0  0  0  0
    3.6649   20.0716   -0.7605 H   0  0  0  0  0  0  0  0  0  0  0  0
    1.8997   20.4044   -0.7605 H   0  0  0  0  0  0  0  0  0  0  0  0
   -1.6681   16.4296    1.5499 H   0  0  0  0  0  0  0  0  0  0  0  0
   -1.5756   17.3579    0.0148 H   0  0  0  0  0  0  0  0  0  0  0  0
   -2.2309   15.6854    0.0148 H   0  0  0  0  0  0  0  0  0  0  0  0
    0.2602   14.5498    1.9682 H   0  0  0  0  0  0  0  0  0  0  0  0
   -0.9941   13.9457    0.7444 H   0  0  0  0  0  0  0  0  0  0  0  0
    2.0207   13.6824    0.5847 H   0  0  0  0  0  0  0  0  0  0  0  0
    0.7825   12.3799    0.7770 H   0  0  0  0  0  0  0  0  0  0  0  0
   -1.1142   12.5353   -0.5564 H   0  0  0  0  0  0  0  0  0  0  0  0
   -1.1317   13.4858   -2.0805 H   0  0  0  0  0  0  0  0  0  0  0  0
   -0.5116   11.7999   -2.0805 H   0  0  0  0  0  0  0  0  0  0  0  0
  1  2  1  0
  2  3  1  0
  3  4  1  0
  4  5  1  0
  5  6  1  0
  6  7  1  0
  7  8  1  0
  7  9  1  0
  2 10  1  0
 10 11  1  0
 11 12  1  0
 12 13  1  0
 13 14  1  1
 13 15  1  0
 15 16  1  0
 16 17  1  0
 17 18  2  0
 18 19  1  0
 19 20  1  0
 20 21  1  0
 21 22  1  0
 22 23  1  0
 22 24  1  0
 24 25  1  0
 24 26  1  0
 19 27  1  0
 27 28  1  6
 27 29  1  0
 29 30  1  0
 30 31  1  0
 31 32  1  1
  7  5  1  0
 31 10  1  0
 31 13  1  0
 27 15  1  0
 24 18  1  0
  1 33  1  0
  1 34  1  0
  1 35  1  0
  2 36  1  6
  3 37  1  0
  3 38  1  0
  4 39  1  0
  4 40  1  0
  5 41  1  1
  8 42  1  0
  8 43  1  0
  8 44  1  0
  9 45  1  0
  9 46  1  0
  9 47  1  0
 10 48  1  1
 11 49  1  0
 11 50  1  0
 12 51  1  0
 12 52  1  0
 14 53  1  0
 14 54  1  0
 14 55  1  0
 15 56  1  6
 16 57  1  0
 16 58  1  0
 17 59  1  0
 19 60  1  1
 20 61  1  0
 20 62  1  0
 21 63  1  0
 21 64  1  0
 22 65  1  1
 23 66  1  0
 25 67  1  0
 25 68  1  0
 25 69  1  0
 26 70  1  0
 26 71  1  0
 26 72  1  0
 28 73  1  0
 28 74  1  0
 28 75  1  0
 29 76  1  0
 29 77  1  0
 30 78  1  0
 30 79  1  0
 32 80  1  0
 32 81  1  0
 32 82  1  0
M  END
>  <meeko>  (7) 
{"is_sidechain": [false], "intermolecular_energy": 2.731, "internal_energy": -0.839}

$$$$
EPH_relaxed_0001_pdb2pqr_Repair_192_r2_0001_out
     RDKit          3D

 82 86  0  0  0  0  0  0  0  0999 V2000
    2.6760   10.0060   -0.8970 C   0  0  0  0  0  0  0  0  0  0  0  0
    1.4640   10.7420   -1.4740 C   0  0  2  0  0  0  0  0  0  0  0  0
    1.0500   10.1900   -2.8520 C   0  0  0  0  0  0  0  0  0  0  0  0
   -0.2870    9.4450   -2.8410 C   0  0  0  0  0  0  0  0  0  0  0  0
   -0.9770    9.5640   -1.5150 C   0  0  2  0  0  0  0  0  0  0  0  0
   -0.9260    8.3820   -0.7060 O   0  0  0  0  0  0  0  0  0  0  0  0
   -2.2300    8.7900   -1.1510 C   0  0  0  0  0  0  0  0  0  0  0  0
   -2.8680    7.8400   -2.1160 C   0  0  0  0  0  0  0  0  0  0  0  0
   -3.1040    9.3160   -0.0560 C   0  0  0  0  0  0  0  0  0  0  0  0
    1.7630   12.2330   -1.5780 C   0  0  1  0  0  0  0  0  0  0  0  0
    1.8000   12.7330   -3.0470 C   0  0  0  0  0  0  0  0  0  0  0  0
    1.2300   14.1750   -3.0430 C   0  0  0  0  0  0  0  0  0  0  0  0
    1.1950   14.5770   -1.5500 C   0  0  1  0  0  0  0  0  0  0  0  0
    2.6550   15.0190   -1.2190 C   0  0  0  0  0  0  0  0  0  0  0  0
    0.1550   15.6750   -1.1550 C   0  0  2  0  0  0  0  0  0  0  0  0
    0.3720   17.0470   -1.8170 C   0  0  0  0  0  0  0  0  0  0  0  0
    1.2410   17.9930   -1.0550 C   0  0  0  0  0  0  0  0  0  0  0  0
    1.5920   17.8640    0.2380 C   0  0  0  0  0  0  0  0  0  0  0  0
    1.0230   16.7290    1.0990 C   0  0  1  0  0  0  0  0  0  0  0  0
    0.5500   17.3000    2.4610 C   0  0  0  0  0  0  0  0  0  0  0  0
    1.6450   18.0840    3.1790 C   0  0  0  0  0  0  0  0  0  0  0  0
    2.1440   19.2390    2.3140 C   0  0  2  0  0  0  0  0  0  0  0  0
    1.0880   20.1940    2.1670 O   0  0  0  0  0  0  0  0  0  0  0  0
    2.6370   18.7860    0.9120 C   0  0  0  0  0  0  0  0  0  0  0  0
    3.9610   17.9960    1.0560 C   0  0  0  0  0  0  0  0  0  0  0  0
    2.9790   20.0590    0.0920 C   0  0  0  0  0  0  0  0  0  0  0  0
   -0.0770   15.8160    0.4040 C   0  0  1  0  0  0  0  0  0  0  0  0
   -1.4890   16.4520    0.5880 C   0  0  0  0  0  0  0  0  0  0  0  0
   -0.1210   14.4200    1.1310 C   0  0  0  0  0  0  0  0  0  0  0  0
    0.8470   13.3380    0.6160 C   0  0  0  0  0  0  0  0  0  0  0  0
    0.7630   13.2080   -0.9080 C   0  0  2  0  0  0  0  0  0  0  0  0
   -0.6880   12.7430   -1.2690 C   0  0  0  0  0  0  0  0  0  0  0  0
    2.6322   10.0326    0.2018 H   0  0  0  0  0  0  0  0  0  0  0  0
    2.6672    8.9606   -1.2391 H   0  0  0  0  0  0  0  0  0  0  0  0
    3.5995   10.4960   -1.2391 H   0  0  0  0  0  0  0  0  0  0  0  0
    0.6204   10.5787   -0.7872 H   0  0  0  0  0  0  0  0  0  0  0  0
    0.9719   11.0329   -3.5544 H   0  0  0  0  0  0  0  0  0  0  0  0
    1.8199    9.4636   -3.1514 H   0  0  0  0  0  0  0  0  0  0  0  0
   -0.9374    9.8683   -3.6206 H   0  0  0  0  0  0  0  0  0  0  0  0
   -0.0877    8.3798   -3.0296 H   0  0  0  0  0  0  0  0  0  0  0  0
   -0.7273   10.6336   -1.4546 H   0  0  0  0  0  0  0  0  0  0  0  0
   -3.3970    7.0523   -1.5595 H   0  0  0  0  0  0  0  0  0  0  0  0
   -3.5835    8.3855   -2.7488 H   0  0  0  0  0  0  0  0  0  0  0  0
   -2.0923    7.3841   -2.7488 H   0  0  0  0  0  0  0  0  0  0  0  0
   -2.6680    9.0536    0.9192 H   0  0  0  0  0  0  0  0  0  0  0  0
   -3.1801   10.4101   -0.1412 H   0  0  0  0  0  0  0  0  0  0  0  0
   -4.1064    8.8710   -0.1412 H   0  0  0  0  0  0  0  0  0  0  0  0
    2.7285   12.2645   -1.0519 H   0  0  0  0  0  0  0  0  0  0  0  0
    2.8347   12.7357   -3.4203 H   0  0  0  0  0  0  0  0  0  0  0  0
    1.2092   12.0765   -3.7027 H   0  0  0  0  0  0  0  0  0  0  0  0
    1.8835   14.8524   -3.6123 H   0  0  0  0  0  0  0  0  0  0  0  0
    0.2374   14.2323   -3.5136 H   0  0  0  0  0  0  0  0  0  0  0  0
    2.7875   15.0591   -0.1277 H   0  0  0  0  0  0  0  0  0  0  0  0
    3.3634   14.2951   -1.6480 H   0  0  0  0  0  0  0  0  0  0  0  0
    2.8430   16.0143   -1.6480 H   0  0  0  0  0  0  0  0  0  0  0  0
   -0.7788   15.2812   -1.5828 H   0  0  0  0  0  0  0  0  0  0  0  0
    0.8330   16.8801   -2.8017 H   0  0  0  0  0  0  0  0  0  0  0  0
   -0.6198   17.5199   -1.8692 H   0  0  0  0  0  0  0  0  0  0  0  0
    1.6269   18.8694   -1.5963 H   0  0  0  0  0  0  0  0  0  0  0  0
    1.8514   16.0229    1.2580 H   0  0  0  0  0  0  0  0  0  0  0  0
   -0.3051   17.9692    2.2850 H   0  0  0  0  0  0  0  0  0  0  0  0
    0.2735   16.4496    3.1016 H   0  0  0  0  0  0  0  0  0  0  0  0
    1.2418   18.4867    4.1199 H   0  0  0  0  0  0  0  0  0  0  0  0
    2.4877   17.4065    3.3811 H   0  0  0  0  0  0  0  0  0  0  0  0
    3.0125   19.6816    2.8237 H   0  0  0  0  0  0  0  0  0  0  0  0
    0.3020   19.8350    2.6120 H   0  0  0  0  0  0  0  0  0  0  0  0
    4.1917   17.8584    2.1227 H   0  0  0  0  0  0  0  0  0  0  0  0
    3.8557   17.0129    0.5738 H   0  0  0  0  0  0  0  0  0  0  0  0
    4.7761   18.5555    0.5738 H   0  0  0  0  0  0  0  0  0  0  0  0
    3.2019   20.8887    0.7789 H   0  0  0  0  0  0  0  0  0  0  0  0
    3.8561   19.8621   -0.5420 H   0  0  0  0  0  0  0  0  0  0  0  0
    2.1213   20.3282   -0.5420 H   0  0  0  0  0  0  0  0  0  0  0  0
   -1.7094   16.5513    1.6611 H   0  0  0  0  0  0  0  0  0  0  0  0
   -1.5079   17.4456    0.1163 H   0  0  0  0  0  0  0  0  0  0  0  0
   -2.2456   15.8078    0.1163 H   0  0  0  0  0  0  0  0  0  0  0  0
    0.1058   14.5909    2.1937 H   0  0  0  0  0  0  0  0  0  0  0  0
   -1.1277   14.0237    0.9325 H   0  0  0  0  0  0  0  0  0  0  0  0
    1.8747   13.6109    0.8978 H   0  0  0  0  0  0  0  0  0  0  0  0
    0.5675   12.3741    1.0663 H   0  0  0  0  0  0  0  0  0  0  0  0
   -1.2555   12.5611   -0.3444 H   0  0  0  0  0  0  0  0  0  0  0  0
   -1.1880   13.5259   -1.8581 H   0  0  0  0  0  0  0  0  0  0  0  0
   -0.6398   11.8153   -1.8581 H   0  0  0  0  0  0  0  0  0  0  0  0
  1  2  1  0
  2  3  1  0
  3  4  1  0
  4  5  1  0
  5  6  1  0
  6  7  1  0
  7  8  1  0
  7  9  1  0
  2 10  1  0
 10 11  1  0
 11 12  1  0
 12 13  1  0
 13 14  1  1
 13 15  1  0
 15 16  1  0
 16 17  1  0
 17 18  2  0
 18 19  1  0
 19 20  1  0
 20 21  1  0
 21 22  1  0
 22 23  1  0
 22 24  1  0
 24 25  1  0
 24 26  1  0
 19 27  1  0
 27 28  1  6
 27 29  1  0
 29 30  1  0
 30 31  1  0
 31 32  1  1
  7  5  1  0
 31 10  1  0
 31 13  1  0
 27 15  1  0
 24 18  1  0
  1 33  1  0
  1 34  1  0
  1 35  1  0
  2 36  1  1
  3 37  1  0
  3 38  1  0
  4 39  1  0
  4 40  1  0
  5 41  1  1
  8 42  1  0
  8 43  1  0
  8 44  1  0
  9 45  1  0
  9 46  1  0
  9 47  1  0
 10 48  1  1
 11 49  1  0
 11 50  1  0
 12 51  1  0
 12 52  1  0
 14 53  1  0
 14 54  1  0
 14 55  1  0
 15 56  1  6
 16 57  1  0
 16 58  1  0
 17 59  1  0
 19 60  1  1
 20 61  1  0
 20 62  1  0
 21 63  1  0
 21 64  1  0
 22 65  1  1
 23 66  1  0
 25 67  1  0
 25 68  1  0
 25 69  1  0
 26 70  1  0
 26 71  1  0
 26 72  1  0
 28 73  1  0
 28 74  1  0
 28 75  1  0
 29 76  1  0
 29 77  1  0
 30 78  1  0
 30 79  1  0
 32 80  1  0
 32 81  1  0
 32 82  1  0
M  END
>  <meeko>  (8) 
{"is_sidechain": [false], "intermolecular_energy": 2.731, "internal_energy": -0.839}

$$$$
EPH_relaxed_0001_pdb2pqr_Repair_192_r2_0001_out
     RDKit          3D

 82 86  0  0  0  0  0  0  0  0999 V2000
    3.9360   17.5660    0.2430 C   0  0  0  0  0  0  0  0  0  0  0  0
    2.7810   17.9160   -0.7000 C   0  0  2  0  0  0  0  0  0  0  0  0
    2.1470   19.2800   -0.3620 C   0  0  0  0  0  0  0  0  0  0  0  0
    1.0840   19.2080    0.7380 C   0  0  0  0  0  0  0  0  0  0  0  0
   -0.1660   19.9380    0.3490 C   0  0  2  0  0  0  0  0  0  0  0  0
   -1.0710   20.1940    1.4300 O   0  0  0  0  0  0  0  0  0  0  0  0
   -1.5480   19.3150    0.3990 C   0  0  0  0  0  0  0  0  0  0  0  0
   -1.7520   17.9030    0.8500 C   0  0  0  0  0  0  0  0  0  0  0  0
   -2.6320   19.9090   -0.4450 C   0  0  0  0  0  0  0  0  0  0  0  0
    1.7210   16.8220   -0.6510 C   0  0  1  0  0  0  0  0  0  0  0  0
    0.3310   17.3150   -1.1350 C   0  0  0  0  0  0  0  0  0  0  0  0
   -0.3380   16.1220   -1.8650 C   0  0  0  0  0  0  0  0  0  0  0  0
    0.5330   14.8990   -1.4930 C   0  0  1  0  0  0  0  0  0  0  0  0
    0.0390   14.4720   -0.0750 C   0  0  0  0  0  0  0  0  0  0  0  0
    0.5090   13.7010   -2.4970 C   0  0  2  0  0  0  0  0  0  0  0  0
   -0.8640   13.0320   -2.6820 C   0  0  0  0  0  0  0  0  0  0  0  0
   -1.1480   11.8950   -1.7560 C   0  0  0  0  0  0  0  0  0  0  0  0
   -0.2350   11.2470   -1.0100 C   0  0  0  0  0  0  0  0  0  0  0  0
    1.2580   11.5790   -1.1280 C   0  0  1  0  0  0  0  0  0  0  0  0
    2.0750   10.2640   -1.2310 C   0  0  0  0  0  0  0  0  0  0  0  0
    1.7810    9.3020   -0.0840 C   0  0  0  0  0  0  0  0  0  0  0  0
    0.2960    8.9500   -0.0360 C   0  0  2  0  0  0  0  0  0  0  0  0
   -0.0360    8.1920   -1.2030 O   0  0  0  0  0  0  0  0  0  0  0  0
   -0.6270   10.1970    0.0580 C   0  0  0  0  0  0  0  0  0  0  0  0
   -0.4810   10.8470    1.4560 C   0  0  0  0  0  0  0  0  0  0  0  0
   -2.0980    9.7110   -0.0430 C   0  0  0  0  0  0  0  0  0  0  0  0
    1.6480   12.6290   -2.2560 C   0  0  1  0  0  0  0  0  0  0  0  0
    1.8640   11.8950   -3.6140 C   0  0  0  0  0  0  0  0  0  0  0  0
    3.0260   13.2940   -1.8850 C   0  0  0  0  0  0  0  0  0  0  0  0
    2.9760   14.5440   -0.9870 C   0  0  0  0  0  0  0  0  0  0  0  0
    1.9600   15.5600   -1.5170 C   0  0  2  0  0  0  0  0  0  0  0  0
    2.4420   16.0250   -2.9330 C   0  0  0  0  0  0  0  0  0  0  0  0
    3.6014   17.6674    1.2860 H   0  0  0  0  0  0  0  0  0  0  0  0
    4.2576   16.5301    0.0602 H   0  0  0  0  0  0  0  0  0  0  0  0
    4.7785   18.2492    0.0602 H   0  0  0  0  0  0  0  0  0  0  0  0
    3.1945   17.9882   -1.7168 H   0  0  0  0  0  0  0  0  0  0  0  0
    2.9445   19.9612   -0.0305 H   0  0  0  0  0  0  0  0  0  0  0  0
    1.6438   19.6357   -1.2732 H   0  0  0  0  0  0  0  0  0  0  0  0
    0.8367   18.1528    0.9264 H   0  0  0  0  0  0  0  0  0  0  0  0
    1.4924   19.6843    1.6415 H   0  0  0  0  0  0  0  0  0  0  0  0
    0.3701   20.4818   -0.4428 H   0  0  0  0  0  0  0  0  0  0  0  0
   -1.7573   17.8664    1.9494 H   0  0  0  0  0  0  0  0  0  0  0  0
   -2.7133   17.5307    0.4661 H   0  0  0  0  0  0  0  0  0  0  0  0
   -0.9354   17.2739    0.4661 H   0  0  0  0  0  0  0  0  0  0  0  0
   -3.4104   20.3355    0.2047 H   0  0  0  0  0  0  0  0  0  0  0  0
   -2.2095   20.7016   -1.0800 H   0  0  0  0  0  0  0  0  0  0  0  0
   -3.0727   19.1264   -1.0800 H   0  0  0  0  0  0  0  0  0  0  0  0
    1.7750   16.5611    0.4162 H   0  0  0  0  0  0  0  0  0  0  0  0
   -0.2815   17.6246   -0.2753 H   0  0  0  0  0  0  0  0  0  0  0  0
    0.4308   18.1819   -1.8048 H   0  0  0  0  0  0  0  0  0  0  0  0
   -1.3718   15.9832   -1.5156 H   0  0  0  0  0  0  0  0  0  0  0  0
   -0.3959   16.2777   -2.9524 H   0  0  0  0  0  0  0  0  0  0  0  0
    0.6357   14.9877    0.6918 H   0  0  0  0  0  0  0  0  0  0  0  0
   -1.0207   14.7432    0.0412 H   0  0  0  0  0  0  0  0  0  0  0  0
    0.1540   13.3842    0.0412 H   0  0  0  0  0  0  0  0  0  0  0  0
    0.7327   14.1926   -3.4553 H   0  0  0  0  0  0  0  0  0  0  0  0
   -1.6389   13.7975   -2.5284 H   0  0  0  0  0  0  0  0  0  0  0  0
   -0.8615   12.6061   -3.6962 H   0  0  0  0  0  0  0  0  0  0  0  0
   -2.1924   11.5589   -1.6773 H   0  0  0  0  0  0  0  0  0  0  0  0
    1.5243   12.1125   -0.2036 H   0  0  0  0  0  0  0  0  0  0  0  0
    1.8260    9.7675   -2.1804 H   0  0  0  0  0  0  0  0  0  0  0  0
    3.1416   10.5284   -1.1803 H   0  0  0  0  0  0  0  0  0  0  0  0
    2.3651    8.3810   -0.2275 H   0  0  0  0  0  0  0  0  0  0  0  0
    2.0579    9.7886    0.8629 H   0  0  0  0  0  0  0  0  0  0  0  0
    0.1253    8.3646    0.8795 H   0  0  0  0  0  0  0  0  0  0  0  0
    0.2530    7.2760   -1.0520 H   0  0  0  0  0  0  0  0  0  0  0  0
   -0.6516   10.0874    2.2331 H   0  0  0  0  0  0  0  0  0  0  0  0
    0.5325   11.2608    1.5639 H   0  0  0  0  0  0  0  0  0  0  0  0
   -1.2202   11.6545    1.5639 H   0  0  0  0  0  0  0  0  0  0  0  0
   -2.5095    9.5751    0.9680 H   0  0  0  0  0  0  0  0  0  0  0  0
   -2.6951   10.4596   -0.5843 H   0  0  0  0  0  0  0  0  0  0  0  0
   -2.1316    8.7540   -0.5843 H   0  0  0  0  0  0  0  0  0  0  0  0
    2.1699   10.8555   -3.4244 H   0  0  0  0  0  0  0  0  0  0  0  0
    0.9257   11.9022   -4.1880 H   0  0  0  0  0  0  0  0  0  0  0  0
    2.6489   12.4093   -4.1880 H   0  0  0  0  0  0  0  0  0  0  0  0
    3.6320   12.5363   -1.3667 H   0  0  0  0  0  0  0  0  0  0  0  0
    3.4427   13.6437   -2.8411 H   0  0  0  0  0  0  0  0  0  0  0  0
    2.6873   14.2442    0.0312 H   0  0  0  0  0  0  0  0  0  0  0  0
    3.9711   15.0128   -0.9830 H   0  0  0  0  0  0  0  0  0  0  0  0
    3.2295   16.7848   -2.8210 H   0  0  0  0  0  0  0  0  0  0  0  0
    2.8411   15.1620   -3.4862 H   0  0  0  0  0  0  0  0  0  0  0  0
    1.5939   16.4548   -3.4862 H   0  0  0  0  0  0  0  0  0  0  0  0
  1  2  1  0
  2  3  1  0
  3  4  1  0
  4  5  1  0
  5  6  1  0
  6  7  1  0
  7  8  1  0
  7  9  1  0
  2 10  1  0
 10 11  1  0
 11 12  1  0
 12 13  1  0
 13 14  1  1
 13 15  1  0
 15 16  1  0
 16 17  1  0
 17 18  2  0
 18 19  1  0
 19 20  1  0
 20 21  1  0
 21 22  1  0
 22 23  1  0
 22 24  1  0
 24 25  1  0
 24 26  1  0
 19 27  1  0
 27 28  1  6
 27 29  1  0
 29 30  1  0
 30 31  1  0
 31 32  1  6
  7  5  1  0
 31 10  1  0
 31 13  1  0
 27 15  1  0
 24 18  1  0
  1 33  1  0
  1 34  1  0
  1 35  1  0
  2 36  1  6
  3 37  1  0
  3 38  1  0
  4 39  1  0
  4 40  1  0
  5 41  1  6
  8 42  1  0
  8 43  1  0
  8 44  1  0
  9 45  1  0
  9 46  1  0
  9 47  1  0
 10 48  1  1
 11 49  1  0
 11 50  1  0
 12 51  1  0
 12 52  1  0
 14 53  1  0
 14 54  1  0
 14 55  1  0
 15 56  1  6
 16 57  1  0
 16 58  1  0
 17 59  1  0
 19 60  1  1
 20 61  1  0
 20 62  1  0
 21 63  1  0
 21 64  1  0
 22 65  1  1
 23 66  1  0
 25 67  1  0
 25 68  1  0
 25 69  1  0
 26 70  1  0
 26 71  1  0
 26 72  1  0
 28 73  1  0
 28 74  1  0
 28 75  1  0
 29 76  1  0
 29 77  1  0
 30 78  1  0
 30 79  1  0
 32 80  1  0
 32 81  1  0
 32 82  1  0
M  END
>  <meeko>  (9) 
{"is_sidechain": [false], "intermolecular_energy": 2.731, "internal_energy": -0.839}

$$$$
EPH_relaxed_0001_pdb2pqr_Repair_192_r2_0001_out
     RDKit          3D

 82 86  0  0  0  0  0  0  0  0999 V2000
   -0.3980   19.0860   -1.8130 C   0  0  0  0  0  0  0  0  0  0  0  0
    0.2840   18.3920   -0.6310 C   0  0  2  0  0  0  0  0  0  0  0  0
    1.3830   19.2690    0.0030 C   0  0  0  0  0  0  0  0  0  0  0  0
    1.2940   19.3600    1.5290 C   0  0  0  0  0  0  0  0  0  0  0  0
    2.4690   20.0860    2.1100 C   0  0  2  0  0  0  0  0  0  0  0  0
    3.5990   20.1940    1.2350 O   0  0  0  0  0  0  0  0  0  0  0  0
    3.7930   19.4160    2.4270 C   0  0  0  0  0  0  0  0  0  0  0  0
    4.0100   17.9570    2.1740 C   0  0  0  0  0  0  0  0  0  0  0  0
    4.7000   20.0620    3.4280 C   0  0  0  0  0  0  0  0  0  0  0  0
    0.8750   17.0610   -1.0810 C   0  0  1  0  0  0  0  0  0  0  0  0
    2.4230   17.1000   -1.1850 C   0  0  0  0  0  0  0  0  0  0  0  0
    2.9350   15.6980   -0.7640 C   0  0  0  0  0  0  0  0  0  0  0  0
    1.6700   14.8080   -0.7540 C   0  0  1  0  0  0  0  0  0  0  0  0
    1.4440   14.4150   -2.2480 C   0  0  0  0  0  0  0  0  0  0  0  0
    1.7180   13.5490    0.1730 C   0  0  2  0  0  0  0  0  0  0  0  0
    2.7960   12.5130   -0.1890 C   0  0  0  0  0  0  0  0  0  0  0  0
    2.3630   11.4480   -1.1420 C   0  0  0  0  0  0  0  0  0  0  0  0
    1.0880   11.1580   -1.4640 C   0  0  0  0  0  0  0  0  0  0  0  0
   -0.0810   11.8730   -0.7740 C   0  0  1  0  0  0  0  0  0  0  0  0
   -1.1460   10.8290   -0.3470 C   0  0  0  0  0  0  0  0  0  0  0  0
   -1.6020    9.9510   -1.5080 C   0  0  0  0  0  0  0  0  0  0  0  0
   -0.4200    9.2120   -2.1310 C   0  0  2  0  0  0  0  0  0  0  0  0
    0.0890    8.2720   -1.1800 O   0  0  0  0  0  0  0  0  0  0  0  0
    0.7210   10.1610   -2.5910 C   0  0  0  0  0  0  0  0  0  0  0  0
    0.2580   10.9730   -3.8260 C   0  0  0  0  0  0  0  0  0  0  0  0
    1.9090    9.2830   -3.0690 C   0  0  0  0  0  0  0  0  0  0  0  0
    0.3110   12.8630    0.4060 C   0  0  1  0  0  0  0  0  0  0  0  0
    0.4180   12.0750    1.7480 C   0  0  0  0  0  0  0  0  0  0  0  0
   -0.8440   13.9150    0.5990 C   0  0  0  0  0  0  0  0  0  0  0  0
   -0.7700   15.1920   -0.2590 C   0  0  0  0  0  0  0  0  0  0  0  0
    0.6210   15.8280   -0.1790 C   0  0  2  0  0  0  0  0  0  0  0  0
    0.8680   16.2530    1.3090 C   0  0  0  0  0  0  0  0  0  0  0  0
   -1.1226   19.8233   -1.4370 H   0  0  0  0  0  0  0  0  0  0  0  0
    0.3599   19.5962   -2.4257 H   0  0  0  0  0  0  0  0  0  0  0  0
   -0.9213   18.3371   -2.4257 H   0  0  0  0  0  0  0  0  0  0  0  0
   -0.4832   18.2178    0.1378 H   0  0  0  0  0  0  0  0  0  0  0  0
    2.3624   18.8447   -0.2631 H   0  0  0  0  0  0  0  0  0  0  0  0
    1.2467   20.2880   -0.3883 H   0  0  0  0  0  0  0  0  0  0  0  0
    0.3732   19.8967    1.8011 H   0  0  0  0  0  0  0  0  0  0  0  0
    1.2882   18.3373    1.9339 H   0  0  0  0  0  0  0  0  0  0  0  0
    1.8059   20.7294    2.7069 H   0  0  0  0  0  0  0  0  0  0  0  0
    4.0890   17.4261    3.1342 H   0  0  0  0  0  0  0  0  0  0  0  0
    3.1619   17.5541    1.6009 H   0  0  0  0  0  0  0  0  0  0  0  0
    4.9386   17.8184    1.6009 H   0  0  0  0  0  0  0  0  0  0  0  0
    4.3574   19.8180    4.4444 H   0  0  0  0  0  0  0  0  0  0  0  0
    5.7255   19.6897    3.2875 H   0  0  0  0  0  0  0  0  0  0  0  0
    4.6834   21.1529    3.2875 H   0  0  0  0  0  0  0  0  0  0  0  0
    0.3482   16.9402   -2.0391 H   0  0  0  0  0  0  0  0  0  0  0  0
    2.7278   17.3199   -2.2188 H   0  0  0  0  0  0  0  0  0  0  0  0
    2.8427   17.8845   -0.5381 H   0  0  0  0  0  0  0  0  0  0  0  0
    3.6706   15.3193   -1.4889 H   0  0  0  0  0  0  0  0  0  0  0  0
    3.4414   15.7145    0.2124 H   0  0  0  0  0  0  0  0  0  0  0  0
    0.8962   13.4624   -2.2977 H   0  0  0  0  0  0  0  0  0  0  0  0
    0.8597   15.2006   -2.7494 H   0  0  0  0  0  0  0  0  0  0  0  0
    2.4169   14.3051   -2.7494 H   0  0  0  0  0  0  0  0  0  0  0  0
    2.0283   13.9770    1.1376 H   0  0  0  0  0  0  0  0  0  0  0  0
    3.6441   13.0486   -0.6404 H   0  0  0  0  0  0  0  0  0  0  0  0
    3.0494   11.9972    0.7490 H   0  0  0  0  0  0  0  0  0  0  0  0
    3.1520   10.8500   -1.6214 H   0  0  0  0  0  0  0  0  0  0  0  0
   -0.5066   12.5552   -1.5246 H   0  0  0  0  0  0  0  0  0  0  0  0
   -0.7155   10.1852    0.4342 H   0  0  0  0  0  0  0  0  0  0  0  0
   -2.0246   11.3792    0.0209 H   0  0  0  0  0  0  0  0  0  0  0  0
   -2.3317    9.2157   -1.1381 H   0  0  0  0  0  0  0  0  0  0  0  0
   -2.0582   10.5934   -2.2756 H   0  0  0  0  0  0  0  0  0  0  0  0
   -0.7875    8.7029   -3.0342 H   0  0  0  0  0  0  0  0  0  0  0  0
   -0.0740    8.6340   -0.2920 H   0  0  0  0  0  0  0  0  0  0  0  0
   -0.2612   11.8836   -3.4925 H   0  0  0  0  0  0  0  0  0  0  0  0
    1.1334   11.2509   -4.4313 H   0  0  0  0  0  0  0  0  0  0  0  0
   -0.4270   10.3612   -4.4313 H   0  0  0  0  0  0  0  0  0  0  0  0
    2.4463    8.8859   -2.1952 H   0  0  0  0  0  0  0  0  0  0  0  0
    1.5274    8.4482   -3.6752 H   0  0  0  0  0  0  0  0  0  0  0  0
    2.5950    9.8928   -3.6752 H   0  0  0  0  0  0  0  0  0  0  0  0
    0.3231   12.7739    2.5921 H   0  0  0  0  0  0  0  0  0  0  0  0
   -0.3868   11.3269    1.7991 H   0  0  0  0  0  0  0  0  0  0  0  0
    1.3932   11.5686    1.7991 H   0  0  0  0  0  0  0  0  0  0  0  0
   -1.7944   13.4123    0.3665 H   0  0  0  0  0  0  0  0  0  0  0  0
   -0.7480   14.2606    1.6389 H   0  0  0  0  0  0  0  0  0  0  0  0
   -0.9882   14.9349   -1.3060 H   0  0  0  0  0  0  0  0  0  0  0  0
   -1.5074   15.9135    0.1227 H   0  0  0  0  0  0  0  0  0  0  0  0
    0.4310   15.5010    1.9825 H   0  0  0  0  0  0  0  0  0  0  0  0
    1.9497   16.3268    1.4945 H   0  0  0  0  0  0  0  0  0  0  0  0
    0.3967   17.2294    1.4945 H   0  0  0  0  0  0  0  0  0  0  0  0
  1  2  1  0
  2  3  1  0
  3  4  1  0
  4  5  1  0
  5  6  1  0
  6  7  1  0
  7  8  1  0
  7  9  1  0
  2 10  1  0
 10 11  1  0
 11 12  1  0
 12 13  1  0
 13 14  1  6
 13 15  1  0
 15 16  1  0
 16 17  1  0
 17 18  2  0
 18 19  1  0
 19 20  1  0
 20 21  1  0
 21 22  1  0
 22 23  1  0
 22 24  1  0
 24 25  1  0
 24 26  1  0
 19 27  1  0
 27 28  1  1
 27 29  1  0
 29 30  1  0
 30 31  1  0
 31 32  1  1
  7  5  1  0
 31 10  1  0
 31 13  1  0
 27 15  1  0
 24 18  1  0
  1 33  1  0
  1 34  1  0
  1 35  1  0
  2 36  1  1
  3 37  1  0
  3 38  1  0
  4 39  1  0
  4 40  1  0
  5 41  1  1
  8 42  1  0
  8 43  1  0
  8 44  1  0
  9 45  1  0
  9 46  1  0
  9 47  1  0
 10 48  1  6
 11 49  1  0
 11 50  1  0
 12 51  1  0
 12 52  1  0
 14 53  1  0
 14 54  1  0
 14 55  1  0
 15 56  1  1
 16 57  1  0
 16 58  1  0
 17 59  1  0
 19 60  1  6
 20 61  1  0
 20 62  1  0
 21 63  1  0
 21 64  1  0
 22 65  1  6
 23 66  1  0
 25 67  1  0
 25 68  1  0
 25 69  1  0
 26 70  1  0
 26 71  1  0
 26 72  1  0
 28 73  1  0
 28 74  1  0
 28 75  1  0
 29 76  1  0
 29 77  1  0
 30 78  1  0
 30 79  1  0
 32 80  1  0
 32 81  1  0
 32 82  1  0
M  END
>  <meeko>  (10) 
{"is_sidechain": [false], "intermolecular_energy": 2.731, "internal_energy": -0.839}

$$$$
EPH_relaxed_0001_pdb2pqr_Repair_192_r2_0001_out
     RDKit          3D

 82 86  0  0  0  0  0  0  0  0999 V2000
    1.4370   11.0900   -4.6110 C   0  0  0  0  0  0  0  0  0  0  0  0
    0.7530   10.8320   -3.2660 C   0  0  2  0  0  0  0  0  0  0  0  0
   -0.3770    9.7890   -3.3800 C   0  0  0  0  0  0  0  0  0  0  0  0
   -0.1860    8.5730   -2.4690 C   0  0  0  0  0  0  0  0  0  0  0  0
    0.1430    8.9780   -1.0640 C   0  0  2  0  0  0  0  0  0  0  0  0
   -0.2960    8.0570   -0.0570 O   0  0  0  0  0  0  0  0  0  0  0  0
   -0.9060    9.3580   -0.0360 C   0  0  0  0  0  0  0  0  0  0  0  0
   -2.3640    9.3520   -0.3700 C   0  0  0  0  0  0  0  0  0  0  0  0
   -0.4920   10.1990    1.1310 C   0  0  0  0  0  0  0  0  0  0  0  0
    0.2020   12.1370   -2.7040 C   0  0  1  0  0  0  0  0  0  0  0  0
   -1.1220   11.9380   -1.9180 C   0  0  0  0  0  0  0  0  0  0  0  0
   -1.1060   12.9560   -0.7500 C   0  0  0  0  0  0  0  0  0  0  0  0
    0.0520   13.9230   -1.0900 C   0  0  1  0  0  0  0  0  0  0  0  0
   -0.5530   14.9250   -2.1230 C   0  0  0  0  0  0  0  0  0  0  0  0
    0.7100   14.6660    0.1180 C   0  0  2  0  0  0  0  0  0  0  0  0
   -0.2280   15.6040    0.8970 C   0  0  0  0  0  0  0  0  0  0  0  0
   -0.2650   17.0150    0.4120 C   0  0  0  0  0  0  0  0  0  0  0  0
    0.6300   17.5800   -0.4200 C   0  0  0  0  0  0  0  0  0  0  0  0
    1.8720   16.8080   -0.8830 C   0  0  1  0  0  0  0  0  0  0  0  0
    3.1240   17.7140   -0.7490 C   0  0  0  0  0  0  0  0  0  0  0  0
    2.9620   19.0470   -1.4730 C   0  0  0  0  0  0  0  0  0  0  0  0
    1.7510   19.8110   -0.9450 C   0  0  2  0  0  0  0  0  0  0  0  0
    2.0030   20.1940    0.4100 O   0  0  0  0  0  0  0  0  0  0  0  0
    0.4310   18.9940   -1.0200 C   0  0  0  0  0  0  0  0  0  0  0  0
   -0.0010   18.8380   -2.4990 C   0  0  0  0  0  0  0  0  0  0  0  0
   -0.6840   19.8240   -0.3270 C   0  0  0  0  0  0  0  0  0  0  0  0
    2.0820   15.3760   -0.2270 C   0  0  1  0  0  0  0  0  0  0  0  0
    2.8620   15.5140    1.1160 C   0  0  0  0  0  0  0  0  0  0  0  0
    2.9850   14.5030   -1.1770 C   0  0  0  0  0  0  0  0  0  0  0  0
    2.2640   13.6990   -2.2760 C   0  0  0  0  0  0  0  0  0  0  0  0
    1.0890   12.9070   -1.6940 C   0  0  2  0  0  0  0  0  0  0  0  0
    1.6690   11.8750   -0.6680 C   0  0  0  0  0  0  0  0  0  0  0  0
    2.4534   11.4734   -4.4379 H   0  0  0  0  0  0  0  0  0  0  0  0
    1.4915   10.1507   -5.1808 H   0  0  0  0  0  0  0  0  0  0  0  0
    0.8576   11.8314   -5.1808 H   0  0  0  0  0  0  0  0  0  0  0  0
    1.5117   10.4238   -2.5821 H   0  0  0  0  0  0  0  0  0  0  0  0
   -1.3271   10.2758   -3.1149 H   0  0  0  0  0  0  0  0  0  0  0  0
   -0.3700    9.4191   -4.4159 H   0  0  0  0  0  0  0  0  0  0  0  0
   -1.1149    7.9838   -2.4617 H   0  0  0  0  0  0  0  0  0  0  0  0
    0.6541    7.9805   -2.8603 H   0  0  0  0  0  0  0  0  0  0  0  0
    1.0634    9.4788   -1.3987 H   0  0  0  0  0  0  0  0  0  0  0  0
   -2.9530    9.3496    0.5590 H   0  0  0  0  0  0  0  0  0  0  0  0
   -2.6093   10.2491   -0.9573 H   0  0  0  0  0  0  0  0  0  0  0  0
   -2.6019    8.4529   -0.9573 H   0  0  0  0  0  0  0  0  0  0  0  0
   -0.7477    9.6796    2.0663 H   0  0  0  0  0  0  0  0  0  0  0  0
    0.5938   10.3710    1.0921 H   0  0  0  0  0  0  0  0  0  0  0  0
   -1.0178   11.1644    1.0921 H   0  0  0  0  0  0  0  0  0  0  0  0
    0.1059   12.7127   -3.6364 H   0  0  0  0  0  0  0  0  0  0  0  0
   -1.9842   12.1279   -2.5742 H   0  0  0  0  0  0  0  0  0  0  0  0
   -1.2073   10.9076   -1.5426 H   0  0  0  0  0  0  0  0  0  0  0  0
   -2.0613   13.4986   -0.6949 H   0  0  0  0  0  0  0  0  0  0  0  0
   -0.9686   12.4681    0.2263 H   0  0  0  0  0  0  0  0  0  0  0  0
   -1.0498   15.7478   -1.5880 H   0  0  0  0  0  0  0  0  0  0  0  0
    0.2511   15.3308   -2.7544 H   0  0  0  0  0  0  0  0  0  0  0  0
   -1.2866   14.4024   -2.7544 H   0  0  0  0  0  0  0  0  0  0  0  0
    0.9424   13.8389    0.8049 H   0  0  0  0  0  0  0  0  0  0  0  0
   -1.2473   15.1956    0.8327 H   0  0  0  0  0  0  0  0  0  0  0  0
    0.1661   15.6451    1.9232 H   0  0  0  0  0  0  0  0  0  0  0  0
   -1.0937   17.6468    0.7642 H   0  0  0  0  0  0  0  0  0  0  0  0
    1.7008   16.5620   -1.9414 H   0  0  0  0  0  0  0  0  0  0  0  0
    3.3034   17.9119    0.3181 H   0  0  0  0  0  0  0  0  0  0  0  0
    3.9703   17.1842   -1.2105 H   0  0  0  0  0  0  0  0  0  0  0  0
    3.8663   19.6536   -1.3170 H   0  0  0  0  0  0  0  0  0  0  0  0
    2.8120   18.8485   -2.5445 H   0  0  0  0  0  0  0  0  0  0  0  0
    1.6111   20.6926   -1.5878 H   0  0  0  0  0  0  0  0  0  0  0  0
    2.5670   20.9860    0.3920 H   0  0  0  0  0  0  0  0  0  0  0  0
   -1.0348   18.4647   -2.5416 H   0  0  0  0  0  0  0  0  0  0  0  0
    0.0574   19.8140   -3.0030 H   0  0  0  0  0  0  0  0  0  0  0  0
    0.6675   18.1245   -3.0030 H   0  0  0  0  0  0  0  0  0  0  0  0
   -0.5760   19.7436    0.7647 H   0  0  0  0  0  0  0  0  0  0  0  0
   -0.5965   20.8785   -0.6275 H   0  0  0  0  0  0  0  0  0  0  0  0
   -1.6691   19.4376   -0.6275 H   0  0  0  0  0  0  0  0  0  0  0  0
    2.1658   15.3908    1.9587 H   0  0  0  0  0  0  0  0  0  0  0  0
    3.6417   14.7399    1.1684 H   0  0  0  0  0  0  0  0  0  0  0  0
    3.3288   16.5087    1.1684 H   0  0  0  0  0  0  0  0  0  0  0  0
    3.6974   15.1790   -1.6725 H   0  0  0  0  0  0  0  0  0  0  0  0
    3.4446   13.7476   -0.5227 H   0  0  0  0  0  0  0  0  0  0  0  0
    1.8862   14.3935   -3.0408 H   0  0  0  0  0  0  0  0  0  0  0  0
    2.9795   12.9906   -2.7191 H   0  0  0  0  0  0  0  0  0  0  0  0
    1.4720   12.2256    0.3559 H   0  0  0  0  0  0  0  0  0  0  0  0
    1.1882   10.8973   -0.8197 H   0  0  0  0  0  0  0  0  0  0  0  0
    2.7541   11.7774   -0.8197 H   0  0  0  0  0  0  0  0  0  0  0  0
  1  2  1  0
  2  3  1  0
  3  4  1  0
  4  5  1  0
  5  6  1  0
  6  7  1  0
  7  8  1  0
  7  9  1  0
  2 10  1  0
 10 11  1  0
 11 12  1  0
 12 13  1  0
 13 14  1  6
 13 15  1  0
 15 16  1  0
 16 17  1  0
 17 18  2  0
 18 19  1  0
 19 20  1  0
 20 21  1  0
 21 22  1  0
 22 23  1  0
 22 24  1  0
 24 25  1  0
 24 26  1  0
 19 27  1  0
 27 28  1  1
 27 29  1  0
 29 30  1  0
 30 31  1  0
 31 32  1  1
  7  5  1  0
 31 10  1  0
 31 13  1  0
 27 15  1  0
 24 18  1  0
  1 33  1  0
  1 34  1  0
  1 35  1  0
  2 36  1  1
  3 37  1  0
  3 38  1  0
  4 39  1  0
  4 40  1  0
  5 41  1  6
  8 42  1  0
  8 43  1  0
  8 44  1  0
  9 45  1  0
  9 46  1  0
  9 47  1  0
 10 48  1  6
 11 49  1  0
 11 50  1  0
 12 51  1  0
 12 52  1  0
 14 53  1  0
 14 54  1  0
 14 55  1  0
 15 56  1  1
 16 57  1  0
 16 58  1  0
 17 59  1  0
 19 60  1  6
 20 61  1  0
 20 62  1  0
 21 63  1  0
 21 64  1  0
 22 65  1  6
 23 66  1  0
 25 67  1  0
 25 68  1  0
 25 69  1  0
 26 70  1  0
 26 71  1  0
 26 72  1  0
 28 73  1  0
 28 74  1  0
 28 75  1  0
 29 76  1  0
 29 77  1  0
 30 78  1  0
 30 79  1  0
 32 80  1  0
 32 81  1  0
 32 82  1  0
M  END
>  <meeko>  (11) 
{"is_sidechain": [false], "intermolecular_energy": 2.731, "internal_energy": -0.839}

$$$$
EPH_relaxed_0001_pdb2pqr_Repair_192_r2_0001_out
     RDKit          3D

 82 86  0  0  0  0  0  0  0  0999 V2000
   -5.2730    5.7420   -1.5960 C   0  0  0  0  0  0  0  0  0  0  0  0
   -5.4870    7.2420   -1.8130 C   0  0  2  0  0  0  0  0  0  0  0  0
   -5.1930    8.0610   -0.5400 C   0  0  0  0  0  0  0  0  0  0  0  0
   -4.2040    9.2090   -0.7620 C   0  0  0  0  0  0  0  0  0  0  0  0
   -2.8130    8.8300   -0.3530 C   0  0  2  0  0  0  0  0  0  0  0  0
   -2.2770    9.5970    0.7330 O   0  0  0  0  0  0  0  0  0  0  0  0
   -1.6110    9.7380   -0.5330 C   0  0  0  0  0  0  0  0  0  0  0  0
   -1.7450   11.0980   -1.1420 C   0  0  0  0  0  0  0  0  0  0  0  0
   -0.2470    9.1220   -0.5680 C   0  0  0  0  0  0  0  0  0  0  0  0
   -6.9150    7.5010   -2.2800 C   0  0  1  0  0  0  0  0  0  0  0  0
   -7.2330    6.8160   -3.6360 C   0  0  0  0  0  0  0  0  0  0  0  0
   -8.7180    6.3750   -3.5760 C   0  0  0  0  0  0  0  0  0  0  0  0
   -9.2930    7.1060   -2.3400 C   0  0  1  0  0  0  0  0  0  0  0  0
   -9.6110    8.5500   -2.8400 C   0  0  0  0  0  0  0  0  0  0  0  0
  -10.5360    6.4430   -1.6610 C   0  0  2  0  0  0  0  0  0  0  0  0
  -11.7900    6.3470   -2.5470 C   0  0  0  0  0  0  0  0  0  0  0  0
  -12.7190    7.5130   -2.4660 C   0  0  0  0  0  0  0  0  0  0  0  0
  -12.7040    8.4590   -1.5090 C   0  0  0  0  0  0  0  0  0  0  0  0
  -11.7450    8.3590   -0.3160 C   0  0  1  0  0  0  0  0  0  0  0  0
  -12.5180    8.6510    0.9970 C   0  0  0  0  0  0  0  0  0  0  0  0
  -13.2590    9.9850    0.9550 C   0  0  0  0  0  0  0  0  0  0  0  0
  -14.2450   10.0240   -0.2100 C   0  0  2  0  0  0  0  0  0  0  0  0
  -15.2840    9.0710    0.0330 O   0  0  0  0  0  0  0  0  0  0  0  0
  -13.5810    9.7330   -1.5850 C   0  0  0  0  0  0  0  0  0  0  0  0
  -12.6750   10.9230   -1.9880 C   0  0  0  0  0  0  0  0  0  0  0  0
  -14.7060    9.6640   -2.6530 C   0  0  0  0  0  0  0  0  0  0  0  0
  -10.8810    7.0270   -0.2310 C   0  0  1  0  0  0  0  0  0  0  0  0
  -11.6820    5.9200    0.5200 C   0  0  0  0  0  0  0  0  0  0  0  0
   -9.5930    7.3040    0.6300 C   0  0  0  0  0  0  0  0  0  0  0  0
   -8.3600    7.8460   -0.1190 C   0  0  0  0  0  0  0  0  0  0  0  0
   -8.0630    7.0060   -1.3650 C   0  0  2  0  0  0  0  0  0  0  0  0
   -7.7180    5.5530   -0.8920 C   0  0  0  0  0  0  0  0  0  0  0  0
   -5.2425    5.5282   -0.5174 H   0  0  0  0  0  0  0  0  0  0  0  0
   -6.1005    5.1830   -2.0573 H   0  0  0  0  0  0  0  0  0  0  0  0
   -4.3222    5.4367   -2.0573 H   0  0  0  0  0  0  0  0  0  0  0  0
   -4.7771    7.5687   -2.5871 H   0  0  0  0  0  0  0  0  0  0  0  0
   -6.1396    8.4841   -0.1728 H   0  0  0  0  0  0  0  0  0  0  0  0
   -4.7314    7.3743    0.1849 H   0  0  0  0  0  0  0  0  0  0  0  0
   -4.2015    9.4758   -1.8291 H   0  0  0  0  0  0  0  0  0  0  0  0
   -4.5231   10.0606   -0.1432 H   0  0  0  0  0  0  0  0  0  0  0  0
   -2.9931    7.7808   -0.6300 H   0  0  0  0  0  0  0  0  0  0  0  0
   -1.8192   11.8514   -0.3440 H   0  0  0  0  0  0  0  0  0  0  0  0
   -0.8633   11.3093   -1.7649 H   0  0  0  0  0  0  0  0  0  0  0  0
   -2.6510   11.1332   -1.7649 H   0  0  0  0  0  0  0  0  0  0  0  0
    0.1092    8.9611    0.4602 H   0  0  0  0  0  0  0  0  0  0  0  0
   -0.2936    8.1576   -1.0950 H   0  0  0  0  0  0  0  0  0  0  0  0
    0.4457    9.7947   -1.0950 H   0  0  0  0  0  0  0  0  0  0  0  0
   -6.9041    8.6006   -2.3075 H   0  0  0  0  0  0  0  0  0  0  0  0
   -7.0813    7.5248   -4.4634 H   0  0  0  0  0  0  0  0  0  0  0  0
   -6.5714    5.9543   -3.8083 H   0  0  0  0  0  0  0  0  0  0  0  0
   -9.2505    6.6789   -4.4893 H   0  0  0  0  0  0  0  0  0  0  0  0
   -8.8259    5.2828   -3.5021 H   0  0  0  0  0  0  0  0  0  0  0  0
   -9.7572    9.2137   -1.9750 H   0  0  0  0  0  0  0  0  0  0  0  0
   -8.7729    8.9202   -3.4487 H   0  0  0  0  0  0  0  0  0  0  0  0
  -10.5271    8.5338   -3.4487 H   0  0  0  0  0  0  0  0  0  0  0  0
  -10.1981    5.4071   -1.5099 H   0  0  0  0  0  0  0  0  0  0  0  0
  -11.4610    6.2465   -3.5918 H   0  0  0  0  0  0  0  0  0  0  0  0
  -12.3574    5.4797   -2.1783 H   0  0  0  0  0  0  0  0  0  0  0  0
  -13.4797    7.6067   -3.2550 H   0  0  0  0  0  0  0  0  0  0  0  0
  -10.9784    9.1312   -0.4773 H   0  0  0  0  0  0  0  0  0  0  0  0
  -13.2495    7.8462    1.1621 H   0  0  0  0  0  0  0  0  0  0  0  0
  -11.7825    8.7029    1.8133 H   0  0  0  0  0  0  0  0  0  0  0  0
  -13.8096   10.1210    1.8975 H   0  0  0  0  0  0  0  0  0  0  0  0
  -12.5234   10.7916    0.8200 H   0  0  0  0  0  0  0  0  0  0  0  0
  -14.6482   11.0459   -0.2662 H   0  0  0  0  0  0  0  0  0  0  0  0
  -15.7510    8.9240   -0.8070 H   0  0  0  0  0  0  0  0  0  0  0  0
  -12.2971   11.4194   -1.0820 H   0  0  0  0  0  0  0  0  0  0  0  0
  -11.8277   10.5533   -2.5841 H   0  0  0  0  0  0  0  0  0  0  0  0
  -13.2569   11.6414   -2.5841 H   0  0  0  0  0  0  0  0  0  0  0  0
  -15.6836    9.6040   -2.1524 H   0  0  0  0  0  0  0  0  0  0  0  0
  -14.6706   10.5660   -3.2816 H   0  0  0  0  0  0  0  0  0  0  0  0
  -14.5607    8.7731   -3.2816 H   0  0  0  0  0  0  0  0  0  0  0  0
  -11.5775    6.0644    1.6055 H   0  0  0  0  0  0  0  0  0  0  0  0
  -12.7444    5.9838    0.2422 H   0  0  0  0  0  0  0  0  0  0  0  0
  -11.2891    4.9308    0.2422 H   0  0  0  0  0  0  0  0  0  0  0  0
   -9.8616    8.0381    1.4039 H   0  0  0  0  0  0  0  0  0  0  0  0
   -9.2867    6.3200    1.0146 H   0  0  0  0  0  0  0  0  0  0  0  0
   -8.5518    8.8856   -0.4231 H   0  0  0  0  0  0  0  0  0  0  0  0
   -7.4909    7.7959    0.5534 H   0  0  0  0  0  0  0  0  0  0  0  0
   -7.7096    5.5176    0.2074 H   0  0  0  0  0  0  0  0  0  0  0  0
   -8.4749    4.8531   -1.2756 H   0  0  0  0  0  0  0  0  0  0  0  0
   -6.7272    5.2681   -1.2756 H   0  0  0  0  0  0  0  0  0  0  0  0
  1  2  1  0
  2  3  1  0
  3  4  1  0
  4  5  1  0
  5  6  1  0
  6  7  1  0
  7  8  1  0
  7  9  1  0
  2 10  1  0
 10 11  1  0
 11 12  1  0
 12 13  1  0
 13 14  1  6
 13 15  1  0
 15 16  1  0
 16 17  1  0
 17 18  2  0
 18 19  1  0
 19 20  1  0
 20 21  1  0
 21 22  1  0
 22 23  1  0
 22 24  1  0
 24 25  1  0
 24 26  1  0
 19 27  1  0
 27 28  1  1
 27 29  1  0
 29 30  1  0
 30 31  1  0
 31 32  1  1
  7  5  1  0
 31 10  1  0
 31 13  1  0
 27 15  1  0
 24 18  1  0
  1 33  1  0
  1 34  1  0
  1 35  1  0
  2 36  1  6
  3 37  1  0
  3 38  1  0
  4 39  1  0
  4 40  1  0
  5 41  1  1
  8 42  1  0
  8 43  1  0
  8 44  1  0
  9 45  1  0
  9 46  1  0
  9 47  1  0
 10 48  1  6
 11 49  1  0
 11 50  1  0
 12 51  1  0
 12 52  1  0
 14 53  1  0
 14 54  1  0
 14 55  1  0
 15 56  1  1
 16 57  1  0
 16 58  1  0
 17 59  1  0
 19 60  1  6
 20 61  1  0
 20 62  1  0
 21 63  1  0
 21 64  1  0
 22 65  1  6
 23 66  1  0
 25 67  1  0
 25 68  1  0
 25 69  1  0
 26 70  1  0
 26 71  1  0
 26 72  1  0
 28 73  1  0
 28 74  1  0
 28 75  1  0
 29 76  1  0
 29 77  1  0
 30 78  1  0
 30 79  1  0
 32 80  1  0
 32 81  1  0
 32 82  1  0
M  END
>  <meeko>  (12) 
{"is_sidechain": [false], "intermolecular_energy": 2.731, "internal_energy": -0.839}

$$$$
EPH_relaxed_0001_pdb2pqr_Repair_192_r2_0001_out
     RDKit          3D

 82 86  0  0  0  0  0  0  0  0999 V2000
    3.0920   18.2870   -3.7250 C   0  0  0  0  0  0  0  0  0  0  0  0
    2.0570   18.1910   -2.6010 C   0  0  2  0  0  0  0  0  0  0  0  0
    2.1860   19.3490   -1.5920 C   0  0  0  0  0  0  0  0  0  0  0  0
    0.9160   20.1940   -1.4590 C   0  0  0  0  0  0  0  0  0  0  0  0
   -0.2110   19.4090   -0.8600 C   0  0  2  0  0  0  0  0  0  0  0  0
   -1.1450   20.1870   -0.1000 O   0  0  0  0  0  0  0  0  0  0  0  0
   -0.3910   19.2080    0.6330 C   0  0  0  0  0  0  0  0  0  0  0  0
    0.5700   19.7940    1.6200 C   0  0  0  0  0  0  0  0  0  0  0  0
   -1.2090   18.0470    1.1050 C   0  0  0  0  0  0  0  0  0  0  0  0
    2.1950   16.8550   -1.8810 C   0  0  1  0  0  0  0  0  0  0  0  0
    2.4370   17.0200   -0.3570 C   0  0  0  0  0  0  0  0  0  0  0  0
    1.7120   15.8410    0.3420 C   0  0  0  0  0  0  0  0  0  0  0  0
    1.3620   14.8640   -0.8050 C   0  0  1  0  0  0  0  0  0  0  0  0
    2.6770   14.0650   -1.0660 C   0  0  0  0  0  0  0  0  0  0  0  0
    0.1480   13.9110   -0.5550 C   0  0  2  0  0  0  0  0  0  0  0  0
    0.3190   12.9300    0.6180 C   0  0  0  0  0  0  0  0  0  0  0  0
    0.9210   11.6110    0.2630 C   0  0  0  0  0  0  0  0  0  0  0  0
    1.0460   11.1180   -0.9830 C   0  0  0  0  0  0  0  0  0  0  0  0
    0.4670   11.8700   -2.1890 C   0  0  1  0  0  0  0  0  0  0  0  0
   -0.3060   10.8770   -3.0960 C   0  0  0  0  0  0  0  0  0  0  0  0
    0.5430    9.6780   -3.5080 C   0  0  0  0  0  0  0  0  0  0  0  0
    1.0510    8.9230   -2.2830 C   0  0  2  0  0  0  0  0  0  0  0  0
   -0.0640    8.3290   -1.6120 O   0  0  0  0  0  0  0  0  0  0  0  0
    1.8390    9.8240   -1.2910 C   0  0  0  0  0  0  0  0  0  0  0  0
    3.1980   10.2230   -1.9170 C   0  0  0  0  0  0  0  0  0  0  0  0
    2.1720    8.9740   -0.0360 C   0  0  0  0  0  0  0  0  0  0  0  0
   -0.3760   13.1740   -1.8530 C   0  0  1  0  0  0  0  0  0  0  0  0
   -1.8620   12.7900   -1.5780 C   0  0  0  0  0  0  0  0  0  0  0  0
   -0.3880   14.1180   -3.1130 C   0  0  0  0  0  0  0  0  0  0  0  0
    0.7760   15.1190   -3.2420 C   0  0  0  0  0  0  0  0  0  0  0  0
    0.9840   15.8900   -1.9350 C   0  0  2  0  0  0  0  0  0  0  0  0
   -0.3150   16.7210   -1.6580 C   0  0  0  0  0  0  0  0  0  0  0  0
    4.0980   18.3803   -3.2901 H   0  0  0  0  0  0  0  0  0  0  0  0
    3.0438   17.3805   -4.3463 H   0  0  0  0  0  0  0  0  0  0  0  0
    2.8779   19.1691   -4.3463 H   0  0  0  0  0  0  0  0  0  0  0  0
    1.0607   18.2644   -3.0614 H   0  0  0  0  0  0  0  0  0  0  0  0
    2.4259   18.9251   -0.6057 H   0  0  0  0  0  0  0  0  0  0  0  0
    2.9774   20.0149   -1.9665 H   0  0  0  0  0  0  0  0  0  0  0  0
    1.1295   21.0597   -0.8148 H   0  0  0  0  0  0  0  0  0  0  0  0
    0.6120   20.5174   -2.4655 H   0  0  0  0  0  0  0  0  0  0  0  0
   -0.1974   18.7024   -1.7030 H   0  0  0  0  0  0  0  0  0  0  0  0
    0.2216   19.5815    2.6415 H   0  0  0  0  0  0  0  0  0  0  0  0
    1.5649   19.3487    1.4719 H   0  0  0  0  0  0  0  0  0  0  0  0
    0.6297   20.8823    1.4719 H   0  0  0  0  0  0  0  0  0  0  0  0
   -1.2210   18.0299    2.2048 H   0  0  0  0  0  0  0  0  0  0  0  0
   -2.2378   18.1462    0.7286 H   0  0  0  0  0  0  0  0  0  0  0  0
   -0.7694   17.1116    0.7286 H   0  0  0  0  0  0  0  0  0  0  0  0
    3.0406   16.4297   -2.4415 H   0  0  0  0  0  0  0  0  0  0  0  0
    3.5145   16.9848   -0.1387 H   0  0  0  0  0  0  0  0  0  0  0  0
    2.0539   17.9870    0.0011 H   0  0  0  0  0  0  0  0  0  0  0  0
    2.3742   15.3577    1.0754 H   0  0  0  0  0  0  0  0  0  0  0  0
    0.8210   16.1692    0.8973 H   0  0  0  0  0  0  0  0  0  0  0  0
    3.1342   13.7872   -0.1048 H   0  0  0  0  0  0  0  0  0  0  0  0
    2.4455   13.1547   -1.6386 H   0  0  0  0  0  0  0  0  0  0  0  0
    3.3782   14.6899   -1.6386 H   0  0  0  0  0  0  0  0  0  0  0  0
   -0.6414   14.6118   -0.2456 H   0  0  0  0  0  0  0  0  0  0  0  0
    0.9653   13.4076    1.3691 H   0  0  0  0  0  0  0  0  0  0  0  0
   -0.6954   12.7131    0.9839 H   0  0  0  0  0  0  0  0  0  0  0  0
    1.2941   10.9891    1.0901 H   0  0  0  0  0  0  0  0  0  0  0  0
    1.3296   12.2795   -2.7352 H   0  0  0  0  0  0  0  0  0  0  0  0
   -1.1881   10.5130   -2.5487 H   0  0  0  0  0  0  0  0  0  0  0  0
   -0.5913   11.4146   -4.0123 H   0  0  0  0  0  0  0  0  0  0  0  0
   -0.0668    8.9990   -4.1221 H   0  0  0  0  0  0  0  0  0  0  0  0
    1.4090   10.0412   -4.0808 H   0  0  0  0  0  0  0  0  0  0  0  0
    1.7555    8.1561   -2.6372 H   0  0  0  0  0  0  0  0  0  0  0  0
   -0.6040    9.0490   -1.2430 H   0  0  0  0  0  0  0  0  0  0  0  0
    3.9221   10.4356   -1.1167 H   0  0  0  0  0  0  0  0  0  0  0  0
    3.5717    9.3967   -2.5395 H   0  0  0  0  0  0  0  0  0  0  0  0
    3.0656   11.1202   -2.5395 H   0  0  0  0  0  0  0  0  0  0  0  0
    1.9448    9.5541    0.8706 H   0  0  0  0  0  0  0  0  0  0  0  0
    1.5674    8.0551   -0.0445 H   0  0  0  0  0  0  0  0  0  0  0  0
    3.2399    8.7103   -0.0445 H   0  0  0  0  0  0  0  0  0  0  0  0
   -2.0343   12.7455   -0.4925 H   0  0  0  0  0  0  0  0  0  0  0  0
   -2.5247   13.5464   -2.0237 H   0  0  0  0  0  0  0  0  0  0  0  0
   -2.0753   11.8072   -2.0237 H   0  0  0  0  0  0  0  0  0  0  0  0
   -0.3778   13.4786   -4.0080 H   0  0  0  0  0  0  0  0  0  0  0  0
   -1.2896   14.7379   -2.9997 H   0  0  0  0  0  0  0  0  0  0  0  0
    1.6973   14.5699   -3.4863 H   0  0  0  0  0  0  0  0  0  0  0  0
    0.5334   15.8380   -4.0383 H   0  0  0  0  0  0  0  0  0  0  0  0
   -0.4645   16.8167   -0.5724 H   0  0  0  0  0  0  0  0  0  0  0  0
   -0.2122   17.7215   -2.1036 H   0  0  0  0  0  0  0  0  0  0  0  0
   -1.1802   16.2083   -2.1036 H   0  0  0  0  0  0  0  0  0  0  0  0
  1  2  1  0
  2  3  1  0
  3  4  1  0
  4  5  1  0
  5  6  1  0
  6  7  1  0
  7  8  1  0
  7  9  1  0
  2 10  1  0
 10 11  1  0
 11 12  1  0
 12 13  1  0
 13 14  1  6
 13 15  1  0
 15 16  1  0
 16 17  1  0
 17 18  2  0
 18 19  1  0
 19 20  1  0
 20 21  1  0
 21 22  1  0
 22 23  1  0
 22 24  1  0
 24 25  1  0
 24 26  1  0
 19 27  1  0
 27 28  1  1
 27 29  1  0
 29 30  1  0
 30 31  1  0
 31 32  1  1
  7  5  1  0
 31 10  1  0
 31 13  1  0
 27 15  1  0
 24 18  1  0
  1 33  1  0
  1 34  1  0
  1 35  1  0
  2 36  1  6
  3 37  1  0
  3 38  1  0
  4 39  1  0
  4 40  1  0
  5 41  1  6
  8 42  1  0
  8 43  1  0
  8 44  1  0
  9 45  1  0
  9 46  1  0
  9 47  1  0
 10 48  1  6
 11 49  1  0
 11 50  1  0
 12 51  1  0
 12 52  1  0
 14 53  1  0
 14 54  1  0
 14 55  1  0
 15 56  1  1
 16 57  1  0
 16 58  1  0
 17 59  1  0
 19 60  1  6
 20 61  1  0
 20 62  1  0
 21 63  1  0
 21 64  1  0
 22 65  1  6
 23 66  1  0
 25 67  1  0
 25 68  1  0
 25 69  1  0
 26 70  1  0
 26 71  1  0
 26 72  1  0
 28 73  1  0
 28 74  1  0
 28 75  1  0
 29 76  1  0
 29 77  1  0
 30 78  1  0
 30 79  1  0
 32 80  1  0
 32 81  1  0
 32 82  1  0
M  END
>  <meeko>  (13) 
{"is_sidechain": [false], "intermolecular_energy": 2.731, "internal_energy": -0.839}

$$$$
EPH_relaxed_0001_pdb2pqr_Repair_192_r2_0001_out
     RDKit          3D

 82 86  0  0  0  0  0  0  0  0999 V2000
   -0.0260   17.4020   -1.1380 C   0  0  0  0  0  0  0  0  0  0  0  0
   -0.3590   16.2110   -0.2350 C   0  0  2  0  0  0  0  0  0  0  0  0
   -0.5210   16.6280    1.2400 C   0  0  0  0  0  0  0  0  0  0  0  0
   -0.0160   18.0420    1.5400 C   0  0  0  0  0  0  0  0  0  0  0  0
    1.4180   18.0370    1.9750 C   0  0  2  0  0  0  0  0  0  0  0  0
    1.8290   19.2070    2.6950 O   0  0  0  0  0  0  0  0  0  0  0  0
    2.4630   18.9900    1.4240 C   0  0  0  0  0  0  0  0  0  0  0  0
    2.1160   20.0140    0.3890 C   0  0  0  0  0  0  0  0  0  0  0  0
    3.9060   18.6070    1.5270 C   0  0  0  0  0  0  0  0  0  0  0  0
    0.7250   15.1460   -0.3600 C   0  0  1  0  0  0  0  0  0  0  0  0
    0.8730   14.2920    0.9270 C   0  0  0  0  0  0  0  0  0  0  0  0
    1.2350   12.8550    0.4710 C   0  0  0  0  0  0  0  0  0  0  0  0
    1.6070   13.0020   -1.0230 C   0  0  1  0  0  0  0  0  0  0  0  0
    3.0830   13.5080   -1.0210 C   0  0  0  0  0  0  0  0  0  0  0  0
    1.4360   11.7240   -1.9070 C   0  0  2  0  0  0  0  0  0  0  0  0
    2.3210   10.5310   -1.5070 C   0  0  0  0  0  0  0  0  0  0  0  0
    3.6540   10.4730   -2.1760 C   0  0  0  0  0  0  0  0  0  0  0  0
    4.0140   11.1750   -3.2660 C   0  0  0  0  0  0  0  0  0  0  0  0
    3.0010   12.0640   -3.9990 C   0  0  1  0  0  0  0  0  0  0  0  0
    3.0990   11.8100   -5.5260 C   0  0  0  0  0  0  0  0  0  0  0  0
    4.5190   11.9820   -6.0580 C   0  0  0  0  0  0  0  0  0  0  0  0
    5.4860   11.0400   -5.3450 C   0  0  2  0  0  0  0  0  0  0  0  0
    5.1580    9.6920   -5.6950 O   0  0  0  0  0  0  0  0  0  0  0  0
    5.4670   11.1980   -3.7990 C   0  0  0  0  0  0  0  0  0  0  0  0
    6.1070   12.5530   -3.4070 C   0  0  0  0  0  0  0  0  0  0  0  0
    6.3790   10.0960   -3.1960 C   0  0  0  0  0  0  0  0  0  0  0  0
    1.5060   11.9990   -3.4640 C   0  0  1  0  0  0  0  0  0  0  0  0
    0.7440   10.8280   -4.1580 C   0  0  0  0  0  0  0  0  0  0  0  0
    0.7550   13.3210   -3.8730 C   0  0  0  0  0  0  0  0  0  0  0  0
    0.8630   14.5100   -2.9000 C   0  0  0  0  0  0  0  0  0  0  0  0
    0.5470   14.0760   -1.4660 C   0  0  2  0  0  0  0  0  0  0  0  0
   -0.9400   13.5830   -1.4320 C   0  0  0  0  0  0  0  0  0  0  0  0
    0.2184   18.2762   -0.5167 H   0  0  0  0  0  0  0  0  0  0  0  0
    0.8364   17.1509   -1.7730 H   0  0  0  0  0  0  0  0  0  0  0  0
   -0.8936   17.6345   -1.7730 H   0  0  0  0  0  0  0  0  0  0  0  0
   -1.3235   15.8011   -0.5692 H   0  0  0  0  0  0  0  0  0  0  0  0
   -1.5888   16.5785    1.4994 H   0  0  0  0  0  0  0  0  0  0  0  0
    0.0894   15.9355    1.8382 H   0  0  0  0  0  0  0  0  0  0  0  0
   -0.1109   18.6548    0.6315 H   0  0  0  0  0  0  0  0  0  0  0  0
   -0.6218   18.4561    2.3595 H   0  0  0  0  0  0  0  0  0  0  0  0
    1.4043   16.9430    2.0893 H   0  0  0  0  0  0  0  0  0  0  0  0
    1.8008   20.9441    0.8846 H   0  0  0  0  0  0  0  0  0  0  0  0
    2.9967   20.2135   -0.2391 H   0  0  0  0  0  0  0  0  0  0  0  0
    1.2954   19.6370   -0.2391 H   0  0  0  0  0  0  0  0  0  0  0  0
    4.1906   18.5315    2.5869 H   0  0  0  0  0  0  0  0  0  0  0  0
    4.0636   17.6359    1.0349 H   0  0  0  0  0  0  0  0  0  0  0  0
    4.5245   19.3721    1.0349 H   0  0  0  0  0  0  0  0  0  0  0  0
    1.5879   15.7870   -0.5933 H   0  0  0  0  0  0  0  0  0  0  0  0
    1.6724   14.7004    1.5628 H   0  0  0  0  0  0  0  0  0  0  0  0
   -0.0573   14.2976    1.5139 H   0  0  0  0  0  0  0  0  0  0  0  0
    2.0882   12.4680    1.0474 H   0  0  0  0  0  0  0  0  0  0  0  0
    0.4079   12.1469    0.6273 H   0  0  0  0  0  0  0  0  0  0  0  0
    3.4286   13.6265    0.0166 H   0  0  0  0  0  0  0  0  0  0  0  0
    3.7217   12.7775   -1.5391 H   0  0  0  0  0  0  0  0  0  0  0  0
    3.1392   14.4767   -1.5391 H   0  0  0  0  0  0  0  0  0  0  0  0
    0.4034   11.4184   -1.6827 H   0  0  0  0  0  0  0  0  0  0  0  0
    2.4878   10.5807   -0.4209 H   0  0  0  0  0  0  0  0  0  0  0  0
    1.7796    9.6292   -1.8290 H   0  0  0  0  0  0  0  0  0  0  0  0
    4.4063    9.7988   -1.7408 H   0  0  0  0  0  0  0  0  0  0  0  0
    3.2885   13.1016   -3.7740 H   0  0  0  0  0  0  0  0  0  0  0  0
    2.7664   10.7825   -5.7346 H   0  0  0  0  0  0  0  0  0  0  0  0
    2.4617   12.5519   -6.0294 H   0  0  0  0  0  0  0  0  0  0  0  0
    4.5292   11.7605   -7.1354 H   0  0  0  0  0  0  0  0  0  0  0  0
    4.8394   13.0184   -5.8756 H   0  0  0  0  0  0  0  0  0  0  0  0
    6.5030   11.2997   -5.6741 H   0  0  0  0  0  0  0  0  0  0  0  0
    4.6360    9.3170   -4.9650 H   0  0  0  0  0  0  0  0  0  0  0  0
    6.1464   12.6364   -2.3109 H   0  0  0  0  0  0  0  0  0  0  0  0
    7.1267   12.6088   -3.8159 H   0  0  0  0  0  0  0  0  0  0  0  0
    5.5024   13.3760   -3.8159 H   0  0  0  0  0  0  0  0  0  0  0  0
    6.3376   10.1461   -2.0979 H   0  0  0  0  0  0  0  0  0  0  0  0
    6.0309    9.1079   -3.5314 H   0  0  0  0  0  0  0  0  0  0  0  0
    7.4148   10.2532   -3.5314 H   0  0  0  0  0  0  0  0  0  0  0  0
    0.3133   10.1661   -3.3923 H   0  0  0  0  0  0  0  0  0  0  0  0
   -0.0621   11.2360   -4.7855 H   0  0  0  0  0  0  0  0  0  0  0  0
    1.4435   10.2563   -4.7855 H   0  0  0  0  0  0  0  0  0  0  0  0
    1.1590   13.6468   -4.8429 H   0  0  0  0  0  0  0  0  0  0  0  0
   -0.3121   13.0543   -3.8845 H   0  0  0  0  0  0  0  0  0  0  0  0
    1.8858   14.9131   -2.9367 H   0  0  0  0  0  0  0  0  0  0  0  0
    0.1352   15.2775   -3.2023 H   0  0  0  0  0  0  0  0  0  0  0  0
   -1.2666   13.4747   -0.3872 H   0  0  0  0  0  0  0  0  0  0  0  0
   -1.5813   14.3166   -1.9425 H   0  0  0  0  0  0  0  0  0  0  0  0
   -1.0160   12.6116   -1.9425 H   0  0  0  0  0  0  0  0  0  0  0  0
  1  2  1  0
  2  3  1  0
  3  4  1  0
  4  5  1  0
  5  6  1  0
  6  7  1  0
  7  8  1  0
  7  9  1  0
  2 10  1  0
 10 11  1  0
 11 12  1  0
 12 13  1  0
 13 14  1  1
 13 15  1  0
 15 16  1  0
 16 17  1  0
 17 18  2  0
 18 19  1  0
 19 20  1  0
 20 21  1  0
 21 22  1  0
 22 23  1  0
 22 24  1  0
 24 25  1  0
 24 26  1  0
 19 27  1  0
 27 28  1  6
 27 29  1  0
 29 30  1  0
 30 31  1  0
 31 32  1  6
  7  5  1  0
 31 10  1  0
 31 13  1  0
 27 15  1  0
 24 18  1  0
  1 33  1  0
  1 34  1  0
  1 35  1  0
  2 36  1  6
  3 37  1  0
  3 38  1  0
  4 39  1  0
  4 40  1  0
  5 41  1  1
  8 42  1  0
  8 43  1  0
  8 44  1  0
  9 45  1  0
  9 46  1  0
  9 47  1  0
 10 48  1  6
 11 49  1  0
 11 50  1  0
 12 51  1  0
 12 52  1  0
 14 53  1  0
 14 54  1  0
 14 55  1  0
 15 56  1  6
 16 57  1  0
 16 58  1  0
 17 59  1  0
 19 60  1  6
 20 61  1  0
 20 62  1  0
 21 63  1  0
 21 64  1  0
 22 65  1  6
 23 66  1  0
 25 67  1  0
 25 68  1  0
 25 69  1  0
 26 70  1  0
 26 71  1  0
 26 72  1  0
 28 73  1  0
 28 74  1  0
 28 75  1  0
 29 76  1  0
 29 77  1  0
 30 78  1  0
 30 79  1  0
 32 80  1  0
 32 81  1  0
 32 82  1  0
M  END
>  <meeko>  (14) 
{"is_sidechain": [false], "intermolecular_energy": 2.731, "internal_energy": -0.839}

$$$$
EPH_relaxed_0001_pdb2pqr_Repair_192_r2_0001_out
     RDKit          3D

 82 86  0  0  0  0  0  0  0  0999 V2000
    1.3460   18.5730   -2.4140 C   0  0  0  0  0  0  0  0  0  0  0  0
    1.2100   17.7610   -1.1230 C   0  0  2  0  0  0  0  0  0  0  0  0
    2.0890   18.3230    0.0120 C   0  0  0  0  0  0  0  0  0  0  0  0
    1.3000   19.0680    1.0910 C   0  0  0  0  0  0  0  0  0  0  0  0
    0.1800   19.8710    0.5040 C   0  0  2  0  0  0  0  0  0  0  0  0
   -0.8720   20.1940    1.4230 O   0  0  0  0  0  0  0  0  0  0  0  0
   -1.2300   19.3370    0.3270 C   0  0  0  0  0  0  0  0  0  0  0  0
   -1.5940   17.9450    0.7360 C   0  0  0  0  0  0  0  0  0  0  0  0
   -2.1210   19.9910   -0.6830 C   0  0  0  0  0  0  0  0  0  0  0  0
    1.5660   16.3030   -1.3860 C   0  0  1  0  0  0  0  0  0  0  0  0
    3.0980   16.0550   -1.3980 C   0  0  0  0  0  0  0  0  0  0  0  0
    3.3280   14.6460   -0.7930 C   0  0  0  0  0  0  0  0  0  0  0  0
    1.9230   14.0010   -0.7620 C   0  0  1  0  0  0  0  0  0  0  0  0
    1.6900   13.4780   -2.2140 C   0  0  0  0  0  0  0  0  0  0  0  0
    1.7030   12.8740    0.2990 C   0  0  2  0  0  0  0  0  0  0  0  0
    2.5880   11.6280    0.1220 C   0  0  0  0  0  0  0  0  0  0  0  0
    2.0070   10.5500   -0.7310 C   0  0  0  0  0  0  0  0  0  0  0  0
    0.7160   10.4530   -1.0970 C   0  0  0  0  0  0  0  0  0  0  0  0
   -0.3310   11.4400   -0.5640 C   0  0  1  0  0  0  0  0  0  0  0  0
   -1.5850   10.6590   -0.0900 C   0  0  0  0  0  0  0  0  0  0  0  0
   -2.1460    9.7420   -1.1710 C   0  0  0  0  0  0  0  0  0  0  0  0
   -1.0940    8.7370   -1.6350 C   0  0  2  0  0  0  0  0  0  0  0  0
   -0.8040    7.8430   -0.5560 O   0  0  0  0  0  0  0  0  0  0  0  0
    0.2190    9.4080   -2.1270 C   0  0  0  0  0  0  0  0  0  0  0  0
   -0.0390   10.1330   -3.4700 C   0  0  0  0  0  0  0  0  0  0  0  0
    1.2450    8.2830   -2.4310 C   0  0  0  0  0  0  0  0  0  0  0  0
    0.1870   12.4790    0.5210 C   0  0  1  0  0  0  0  0  0  0  0  0
    0.0940   11.8530    1.9460 C   0  0  0  0  0  0  0  0  0  0  0  0
   -0.7640   13.7340    0.5250 C   0  0  0  0  0  0  0  0  0  0  0  0
   -0.4240   14.8660   -0.4640 C   0  0  0  0  0  0  0  0  0  0  0  0
    1.0550   15.2510   -0.3690 C   0  0  2  0  0  0  0  0  0  0  0  0
    1.3150   15.8020    1.0740 C   0  0  0  0  0  0  0  0  0  0  0  0
    1.5230   19.6298   -2.1655 H   0  0  0  0  0  0  0  0  0  0  0  0
    2.1922   18.1879   -3.0020 H   0  0  0  0  0  0  0  0  0  0  0  0
    0.4205   18.4846   -3.0020 H   0  0  0  0  0  0  0  0  0  0  0  0
    0.1626   17.8338   -0.7950 H   0  0  0  0  0  0  0  0  0  0  0  0
    2.6204   17.4850    0.4869 H   0  0  0  0  0  0  0  0  0  0  0  0
    2.7755   19.0514   -0.4443 H   0  0  0  0  0  0  0  0  0  0  0  0
    0.8814   18.3351    1.7964 H   0  0  0  0  0  0  0  0  0  0  0  0
    1.9865   19.7594    1.6016 H   0  0  0  0  0  0  0  0  0  0  0  0
    0.8719   20.3721   -0.1890 H   0  0  0  0  0  0  0  0  0  0  0  0
   -1.6115   17.8781    1.8338 H   0  0  0  0  0  0  0  0  0  0  0  0
   -2.5880   17.6938    0.3375 H   0  0  0  0  0  0  0  0  0  0  0  0
   -0.8502   17.2394    0.3375 H   0  0  0  0  0  0  0  0  0  0  0  0
   -2.9032   20.5651   -0.1648 H   0  0  0  0  0  0  0  0  0  0  0  0
   -1.5258   20.6682   -1.3131 H   0  0  0  0  0  0  0  0  0  0  0  0
   -2.5887   19.2201   -1.3131 H   0  0  0  0  0  0  0  0  0  0  0  0
    1.0656   16.1633   -2.3556 H   0  0  0  0  0  0  0  0  0  0  0  0
    3.4795   16.0914   -2.4291 H   0  0  0  0  0  0  0  0  0  0  0  0
    3.6273   16.8251   -0.8177 H   0  0  0  0  0  0  0  0  0  0  0  0
    4.0110   14.0589   -1.4246 H   0  0  0  0  0  0  0  0  0  0  0  0
    3.7888   14.6905    0.2048 H   0  0  0  0  0  0  0  0  0  0  0  0
    1.2426   12.4738   -2.1747 H   0  0  0  0  0  0  0  0  0  0  0  0
    1.0112   14.1613   -2.7453 H   0  0  0  0  0  0  0  0  0  0  0  0
    2.6520   13.4303   -2.7453 H   0  0  0  0  0  0  0  0  0  0  0  0
    2.0468   13.3548    1.2267 H   0  0  0  0  0  0  0  0  0  0  0  0
    3.5373   11.9471   -0.3330 H   0  0  0  0  0  0  0  0  0  0  0  0
    2.7051   11.1926    1.1253 H   0  0  0  0  0  0  0  0  0  0  0  0
    2.6924    9.7685   -1.0910 H   0  0  0  0  0  0  0  0  0  0  0  0
   -0.5952   12.0908   -1.4105 H   0  0  0  0  0  0  0  0  0  0  0  0
   -1.3110   10.0484    0.7830 H   0  0  0  0  0  0  0  0  0  0  0  0
   -2.3627   11.3959    0.1593 H   0  0  0  0  0  0  0  0  0  0  0  0
   -3.0113    9.1964   -0.7666 H   0  0  0  0  0  0  0  0  0  0  0  0
   -2.4469   10.3574   -2.0316 H   0  0  0  0  0  0  0  0  0  0  0  0
   -1.5109    8.1961   -2.4973 H   0  0  0  0  0  0  0  0  0  0  0  0
   -0.1490    7.2000   -0.8750 H   0  0  0  0  0  0  0  0  0  0  0  0
   -0.4018   11.1525   -3.2725 H   0  0  0  0  0  0  0  0  0  0  0  0
    0.8969   10.1820   -4.0459 H   0  0  0  0  0  0  0  0  0  0  0  0
   -0.7954    9.5797   -4.0459 H   0  0  0  0  0  0  0  0  0  0  0  0
    1.6241    7.8673   -1.4858 H   0  0  0  0  0  0  0  0  0  0  0  0
    0.7553    7.4871   -3.0113 H   0  0  0  0  0  0  0  0  0  0  0  0
    2.0825    8.6976   -3.0113 H   0  0  0  0  0  0  0  0  0  0  0  0
    0.2114   12.6433    2.7020 H   0  0  0  0  0  0  0  0  0  0  0  0
   -0.8859   11.3690    2.0706 H   0  0  0  0  0  0  0  0  0  0  0  0
    0.8909   11.1050    2.0706 H   0  0  0  0  0  0  0  0  0  0  0  0
   -1.7800   13.3825    0.2921 H   0  0  0  0  0  0  0  0  0  0  0  0
   -0.6484   14.1798    1.5239 H   0  0  0  0  0  0  0  0  0  0  0  0
   -0.6427   14.5274   -1.4875 H   0  0  0  0  0  0  0  0  0  0  0  0
   -1.0326   15.7468   -0.2116 H   0  0  0  0  0  0  0  0  0  0  0  0
    0.9681   15.0669    1.8152 H   0  0  0  0  0  0  0  0  0  0  0  0
    2.3920   15.9797    1.2101 H   0  0  0  0  0  0  0  0  0  0  0  0
    0.7675   16.7463    1.2101 H   0  0  0  0  0  0  0  0  0  0  0  0
  1  2  1  0
  2  3  1  0
  3  4  1  0
  4  5  1  0
  5  6  1  0
  6  7  1  0
  7  8  1  0
  7  9  1  0
  2 10  1  0
 10 11  1  0
 11 12  1  0
 12 13  1  0
 13 14  1  6
 13 15  1  0
 15 16  1  0
 16 17  1  0
 17 18  2  0
 18 19  1  0
 19 20  1  0
 20 21  1  0
 21 22  1  0
 22 23  1  0
 22 24  1  0
 24 25  1  0
 24 26  1  0
 19 27  1  0
 27 28  1  1
 27 29  1  0
 29 30  1  0
 30 31  1  0
 31 32  1  1
  7  5  1  0
 31 10  1  0
 31 13  1  0
 27 15  1  0
 24 18  1  0
  1 33  1  0
  1 34  1  0
  1 35  1  0
  2 36  1  1
  3 37  1  0
  3 38  1  0
  4 39  1  0
  4 40  1  0
  5 41  1  6
  8 42  1  0
  8 43  1  0
  8 44  1  0
  9 45  1  0
  9 46  1  0
  9 47  1  0
 10 48  1  6
 11 49  1  0
 11 50  1  0
 12 51  1  0
 12 52  1  0
 14 53  1  0
 14 54  1  0
 14 55  1  0
 15 56  1  1
 16 57  1  0
 16 58  1  0
 17 59  1  0
 19 60  1  6
 20 61  1  0
 20 62  1  0
 21 63  1  0
 21 64  1  0
 22 65  1  6
 23 66  1  0
 25 67  1  0
 25 68  1  0
 25 69  1  0
 26 70  1  0
 26 71  1  0
 26 72  1  0
 28 73  1  0
 28 74  1  0
 28 75  1  0
 29 76  1  0
 29 77  1  0
 30 78  1  0
 30 79  1  0
 32 80  1  0
 32 81  1  0
 32 82  1  0
M  END
>  <meeko>  (15) 
{"is_sidechain": [false], "intermolecular_energy": 2.731, "internal_energy": -0.839}

$$$$
EPH_relaxed_0001_pdb2pqr_Repair_192_r2_0001_out
     RDKit          3D

 82 86  0  0  0  0  0  0  0  0999 V2000
    0.1620   10.6320   -3.7590 C   0  0  0  0  0  0  0  0  0  0  0  0
    1.6170   11.1060   -3.7120 C   0  0  2  0  0  0  0  0  0  0  0  0
    2.4000   10.4630   -2.5490 C   0  0  0  0  0  0  0  0  0  0  0  0
    1.5960    9.4180   -1.7690 C   0  0  0  0  0  0  0  0  0  0  0  0
    1.2920    9.8800   -0.3760 C   0  0  2  0  0  0  0  0  0  0  0  0
    0.7870    8.8600    0.4950 O   0  0  0  0  0  0  0  0  0  0  0  0
   -0.1120    9.9400    0.1970 C   0  0  0  0  0  0  0  0  0  0  0  0
   -1.3030    9.5340   -0.6130 C   0  0  0  0  0  0  0  0  0  0  0  0
   -0.3720   10.8460    1.3590 C   0  0  0  0  0  0  0  0  0  0  0  0
    1.6660   12.6250   -3.5960 C   0  0  1  0  0  0  0  0  0  0  0  0
    1.0660   13.3380   -4.8370 C   0  0  0  0  0  0  0  0  0  0  0  0
    0.3690   14.6230   -4.3210 C   0  0  0  0  0  0  0  0  0  0  0  0
    0.8690   14.7800   -2.8660 C   0  0  1  0  0  0  0  0  0  0  0  0
    2.2760   15.4440   -2.9940 C   0  0  0  0  0  0  0  0  0  0  0  0
   -0.0610   15.5830   -1.8980 C   0  0  2  0  0  0  0  0  0  0  0  0
   -0.2910   17.0540   -2.2850 C   0  0  0  0  0  0  0  0  0  0  0  0
    0.6820   18.0250   -1.7030 C   0  0  0  0  0  0  0  0  0  0  0  0
    1.5220   17.7740   -0.6810 C   0  0  0  0  0  0  0  0  0  0  0  0
    1.4780   16.4330    0.0630 C   0  0  1  0  0  0  0  0  0  0  0  0
    1.5070   16.6890    1.5930 C   0  0  0  0  0  0  0  0  0  0  0  0
    2.6890   17.5540    2.0190 C   0  0  0  0  0  0  0  0  0  0  0  0
    2.6650   18.9010    1.3020 C   0  0  2  0  0  0  0  0  0  0  0  0
    1.5270   19.6430    1.7510 O   0  0  0  0  0  0  0  0  0  0  0  0
    2.6250   18.7700   -0.2470 C   0  0  0  0  0  0  0  0  0  0  0  0
    3.9880   18.2410   -0.7590 C   0  0  0  0  0  0  0  0  0  0  0  0
    2.4610   20.1950   -0.8430 C   0  0  0  0  0  0  0  0  0  0  0  0
    0.3160   15.4390   -0.3680 C   0  0  1  0  0  0  0  0  0  0  0  0
   -0.9790   15.7520    0.4410 C   0  0  0  0  0  0  0  0  0  0  0  0
    0.7310   13.9680    0.0100 C   0  0  0  0  0  0  0  0  0  0  0  0
    1.5480   13.1860   -1.0370 C   0  0  0  0  0  0  0  0  0  0  0  0
    0.8940   13.2730   -2.4190 C   0  0  2  0  0  0  0  0  0  0  0  0
   -0.5150   12.5930   -2.3260 C   0  0  0  0  0  0  0  0  0  0  0  0
   -0.2167   10.5086   -2.7337 H   0  0  0  0  0  0  0  0  0  0  0  0
   -0.4495   11.3774   -4.2886 H   0  0  0  0  0  0  0  0  0  0  0  0
    0.1069    9.6694   -4.2886 H   0  0  0  0  0  0  0  0  0  0  0  0
    2.0983   10.7894   -4.6491 H   0  0  0  0  0  0  0  0  0  0  0  0
    3.2958    9.9754   -2.9611 H   0  0  0  0  0  0  0  0  0  0  0  0
    2.6483   11.2698   -1.8437 H   0  0  0  0  0  0  0  0  0  0  0  0
    0.6494    9.2296   -2.2968 H   0  0  0  0  0  0  0  0  0  0  0  0
    2.1992    8.5005   -1.7023 H   0  0  0  0  0  0  0  0  0  0  0  0
    2.1040   10.6208   -0.4182 H   0  0  0  0  0  0  0  0  0  0  0  0
   -2.1261    9.2534    0.0606 H   0  0  0  0  0  0  0  0  0  0  0  0
   -1.6190   10.3752   -1.2475 H   0  0  0  0  0  0  0  0  0  0  0  0
   -1.0394    8.6750   -1.2475 H   0  0  0  0  0  0  0  0  0  0  0  0
   -0.2135   10.2938    2.2971 H   0  0  0  0  0  0  0  0  0  0  0  0
    0.3165   11.7029    1.3171 H   0  0  0  0  0  0  0  0  0  0  0  0
   -1.4101   11.2074    1.3171 H   0  0  0  0  0  0  0  0  0  0  0  0
    2.7483   12.7654   -3.4588 H   0  0  0  0  0  0  0  0  0  0  0  0
    1.8647   13.5993   -5.5468 H   0  0  0  0  0  0  0  0  0  0  0  0
    0.3526   12.6850   -5.3612 H   0  0  0  0  0  0  0  0  0  0  0  0
    0.6601   15.4931   -4.9278 H   0  0  0  0  0  0  0  0  0  0  0  0
   -0.7273   14.5558   -4.3806 H   0  0  0  0  0  0  0  0  0  0  0  0
    2.6834   15.6363   -1.9905 H   0  0  0  0  0  0  0  0  0  0  0  0
    2.9513   14.7696   -3.5409 H   0  0  0  0  0  0  0  0  0  0  0  0
    2.1847   16.3941   -3.5409 H   0  0  0  0  0  0  0  0  0  0  0  0
   -1.0313   15.0833   -2.0351 H   0  0  0  0  0  0  0  0  0  0  0  0
   -0.2335   17.1304   -3.3808 H   0  0  0  0  0  0  0  0  0  0  0  0
   -1.2751   17.3265   -1.8760 H   0  0  0  0  0  0  0  0  0  0  0  0
    0.7156   19.0310   -2.1467 H   0  0  0  0  0  0  0  0  0  0  0  0
    2.3827   15.8862   -0.2411 H   0  0  0  0  0  0  0  0  0  0  0  0
    0.5755   17.1971    1.8832 H   0  0  0  0  0  0  0  0  0  0  0  0
    1.6092   15.7144    2.0927 H   0  0  0  0  0  0  0  0  0  0  0  0
    2.6386   17.7231    3.1048 H   0  0  0  0  0  0  0  0  0  0  0  0
    3.6201   17.0316    1.7541 H   0  0  0  0  0  0  0  0  0  0  0  0
    3.6016   19.4223    1.5491 H   0  0  0  0  0  0  0  0  0  0  0  0
    1.4680   19.5360    2.7150 H   0  0  0  0  0  0  0  0  0  0  0  0
    4.6302   17.9918    0.0986 H   0  0  0  0  0  0  0  0  0  0  0  0
    3.8259   17.3405   -1.3696 H   0  0  0  0  0  0  0  0  0  0  0  0
    4.4758   19.0151   -1.3696 H   0  0  0  0  0  0  0  0  0  0  0  0
    2.3768   20.9267   -0.0260 H   0  0  0  0  0  0  0  0  0  0  0  0
    3.3373   20.4364   -1.4625 H   0  0  0  0  0  0  0  0  0  0  0  0
    1.5528   20.2310   -1.4625 H   0  0  0  0  0  0  0  0  0  0  0  0
   -0.7604   15.6992    1.5178 H   0  0  0  0  0  0  0  0  0  0  0  0
   -1.3342   16.7619    0.1881 H   0  0  0  0  0  0  0  0  0  0  0  0
   -1.7563   15.0159    0.1881 H   0  0  0  0  0  0  0  0  0  0  0  0
    1.3307   14.0176    0.9308 H   0  0  0  0  0  0  0  0  0  0  0  0
   -0.2163   13.4172    0.1061 H   0  0  0  0  0  0  0  0  0  0  0  0
    2.5620   13.6090   -1.0914 H   0  0  0  0  0  0  0  0  0  0  0  0
    1.5874   12.1294   -0.7335 H   0  0  0  0  0  0  0  0  0  0  0  0
   -0.7892   12.4607   -1.2690 H   0  0  0  0  0  0  0  0  0  0  0  0
   -1.2627   13.2294   -2.8219 H   0  0  0  0  0  0  0  0  0  0  0  0
   -0.4820   11.6117   -2.8219 H   0  0  0  0  0  0  0  0  0  0  0  0
  1  2  1  0
  2  3  1  0
  3  4  1  0
  4  5  1  0
  5  6  1  0
  6  7  1  0
  7  8  1  0
  7  9  1  0
  2 10  1  0
 10 11  1  0
 11 12  1  0
 12 13  1  0
 13 14  1  6
 13 15  1  0
 15 16  1  0
 16 17  1  0
 17 18  2  0
 18 19  1  0
 19 20  1  0
 20 21  1  0
 21 22  1  0
 22 23  1  0
 22 24  1  0
 24 25  1  0
 24 26  1  0
 19 27  1  0
 27 28  1  1
 27 29  1  0
 29 30  1  0
 30 31  1  0
 31 32  1  1
  7  5  1  0
 31 10  1  0
 31 13  1  0
 27 15  1  0
 24 18  1  0
  1 33  1  0
  1 34  1  0
  1 35  1  0
  2 36  1  6
  3 37  1  0
  3 38  1  0
  4 39  1  0
  4 40  1  0
  5 41  1  1
  8 42  1  0
  8 43  1  0
  8 44  1  0
  9 45  1  0
  9 46  1  0
  9 47  1  0
 10 48  1  1
 11 49  1  0
 11 50  1  0
 12 51  1  0
 12 52  1  0
 14 53  1  0
 14 54  1  0
 14 55  1  0
 15 56  1  1
 16 57  1  0
 16 58  1  0
 17 59  1  0
 19 60  1  6
 20 61  1  0
 20 62  1  0
 21 63  1  0
 21 64  1  0
 22 65  1  6
 23 66  1  0
 25 67  1  0
 25 68  1  0
 25 69  1  0
 26 70  1  0
 26 71  1  0
 26 72  1  0
 28 73  1  0
 28 74  1  0
 28 75  1  0
 29 76  1  0
 29 77  1  0
 30 78  1  0
 30 79  1  0
 32 80  1  0
 32 81  1  0
 32 82  1  0
M  END
>  <meeko>  (16) 
{"is_sidechain": [false], "intermolecular_energy": 2.731, "internal_energy": -0.839}

$$$$
EPH_relaxed_0001_pdb2pqr_Repair_192_r2_0001_out
     RDKit          3D

 82 86  0  0  0  0  0  0  0  0999 V2000
    1.9040    9.6710   -1.5690 C   0  0  0  0  0  0  0  0  0  0  0  0
    1.5000   10.5100   -2.7840 C   0  0  2  0  0  0  0  0  0  0  0  0
    2.7160   10.9030   -3.6480 C   0  0  0  0  0  0  0  0  0  0  0  0
    2.3460   11.6860   -4.9100 C   0  0  0  0  0  0  0  0  0  0  0  0
    1.3660   12.7810   -4.6170 C   0  0  2  0  0  0  0  0  0  0  0  0
    0.2570   12.8500   -5.5220 O   0  0  0  0  0  0  0  0  0  0  0  0
    1.1490   13.9760   -5.5270 C   0  0  0  0  0  0  0  0  0  0  0  0
    1.9190   14.1370   -6.8000 C   0  0  0  0  0  0  0  0  0  0  0  0
    0.5540   15.2200   -4.9450 C   0  0  0  0  0  0  0  0  0  0  0  0
    0.7580   11.7610   -2.3290 C   0  0  1  0  0  0  0  0  0  0  0  0
   -0.5440   11.4330   -1.5510 C   0  0  0  0  0  0  0  0  0  0  0  0
   -0.7000   12.5250   -0.4610 C   0  0  0  0  0  0  0  0  0  0  0  0
    0.3200   13.6190   -0.8550 C   0  0  1  0  0  0  0  0  0  0  0  0
   -0.3930   14.4490   -1.9680 C   0  0  0  0  0  0  0  0  0  0  0  0
    0.8370   14.5310    0.3040 C   0  0  2  0  0  0  0  0  0  0  0  0
   -0.2430   15.3800    0.9980 C   0  0  0  0  0  0  0  0  0  0  0  0
   -0.4650   16.7340    0.4080 C   0  0  0  0  0  0  0  0  0  0  0  0
    0.3630   17.3590   -0.4490 C   0  0  0  0  0  0  0  0  0  0  0  0
    1.7120   16.7390   -0.8350 C   0  0  1  0  0  0  0  0  0  0  0  0
    2.8220   17.8200   -0.7500 C   0  0  0  0  0  0  0  0  0  0  0  0
    2.4940   19.0610   -1.5740 C   0  0  0  0  0  0  0  0  0  0  0  0
    1.1750   19.6830   -1.1220 C   0  0  2  0  0  0  0  0  0  0  0  0
    1.3370   20.1940    0.2050 O   0  0  0  0  0  0  0  0  0  0  0  0
   -0.0160   18.6840   -1.1560 C   0  0  0  0  0  0  0  0  0  0  0  0
   -0.3850   18.3630   -2.6250 C   0  0  0  0  0  0  0  0  0  0  0  0
   -1.2530   19.3950   -0.5430 C   0  0  0  0  0  0  0  0  0  0  0  0
    2.1040   15.4010   -0.0720 C   0  0  1  0  0  0  0  0  0  0  0  0
    2.8230   15.7440    1.2690 C   0  0  0  0  0  0  0  0  0  0  0  0
    3.1440   14.6000   -0.9410 C   0  0  0  0  0  0  0  0  0  0  0  0
    2.5710   13.6250   -1.9870 C   0  0  0  0  0  0  0  0  0  0  0  0
    1.5030   12.7190   -1.3660 C   0  0  2  0  0  0  0  0  0  0  0  0
    2.1960   11.8550   -0.2580 C   0  0  0  0  0  0  0  0  0  0  0  0
    1.6437   10.2117   -0.6471 H   0  0  0  0  0  0  0  0  0  0  0  0
    1.3701    8.7096   -1.5934 H   0  0  0  0  0  0  0  0  0  0  0  0
    2.9885    9.4889   -1.5934 H   0  0  0  0  0  0  0  0  0  0  0  0
    0.8375    9.8918   -3.4076 H   0  0  0  0  0  0  0  0  0  0  0  0
    3.3889   11.5241   -3.0386 H   0  0  0  0  0  0  0  0  0  0  0  0
    3.1922    9.9678   -3.9776 H   0  0  0  0  0  0  0  0  0  0  0  0
    3.2588   12.1291   -5.3347 H   0  0  0  0  0  0  0  0  0  0  0  0
    1.8780   10.9888   -5.6205 H   0  0  0  0  0  0  0  0  0  0  0  0
    1.5648   12.7017   -3.5380 H   0  0  0  0  0  0  0  0  0  0  0  0
    2.9712   14.3570   -6.5667 H   0  0  0  0  0  0  0  0  0  0  0  0
    1.8597   13.2070   -7.3845 H   0  0  0  0  0  0  0  0  0  0  0  0
    1.4921   14.9653   -7.3845 H   0  0  0  0  0  0  0  0  0  0  0  0
    0.5822   15.1610   -3.8469 H   0  0  0  0  0  0  0  0  0  0  0  0
    1.1315   16.0942   -5.2802 H   0  0  0  0  0  0  0  0  0  0  0  0
   -0.4890   15.3191   -5.2802 H   0  0  0  0  0  0  0  0  0  0  0  0
    0.6060   12.2498   -3.3026 H   0  0  0  0  0  0  0  0  0  0  0  0
   -1.4074   11.4516   -2.2323 H   0  0  0  0  0  0  0  0  0  0  0  0
   -0.4940   10.4302   -1.1016 H   0  0  0  0  0  0  0  0  0  0  0  0
   -1.7228   12.9298   -0.4606 H   0  0  0  0  0  0  0  0  0  0  0  0
   -0.5205   12.1327    0.5509 H   0  0  0  0  0  0  0  0  0  0  0  0
   -1.0424   15.2050   -1.5024 H   0  0  0  0  0  0  0  0  0  0  0  0
    0.3617   14.9487   -2.5930 H   0  0  0  0  0  0  0  0  0  0  0  0
   -1.0008   13.7782   -2.5930 H   0  0  0  0  0  0  0  0  0  0  0  0
    1.1658   13.7962    1.0536 H   0  0  0  0  0  0  0  0  0  0  0  0
   -1.1931   14.8278    0.9493 H   0  0  0  0  0  0  0  0  0  0  0  0
    0.1151   15.5495    2.0242 H   0  0  0  0  0  0  0  0  0  0  0  0
   -1.3832   17.2654    0.6987 H   0  0  0  0  0  0  0  0  0  0  0  0
    1.6028   16.3967   -1.8747 H   0  0  0  0  0  0  0  0  0  0  0  0
    2.9448   18.1174    0.3019 H   0  0  0  0  0  0  0  0  0  0  0  0
    3.7456   17.3831   -1.1575 H   0  0  0  0  0  0  0  0  0  0  0  0
    3.3007   19.7985   -1.4508 H   0  0  0  0  0  0  0  0  0  0  0  0
    2.3999   18.7667   -2.6297 H   0  0  0  0  0  0  0  0  0  0  0  0
    0.9296   20.4882   -1.8301 H   0  0  0  0  0  0  0  0  0  0  0  0
    2.2820   20.1420    0.4270 H   0  0  0  0  0  0  0  0  0  0  0  0
   -1.2148   17.6412   -2.6453 H   0  0  0  0  0  0  0  0  0  0  0  0
   -0.6907   19.2875   -3.1367 H   0  0  0  0  0  0  0  0  0  0  0  0
    0.4883   17.9323   -3.1367 H   0  0  0  0  0  0  0  0  0  0  0  0
   -1.1901   19.3589    0.5546 H   0  0  0  0  0  0  0  0  0  0  0  0
   -1.2750   20.4436   -0.8747 H   0  0  0  0  0  0  0  0  0  0  0  0
   -2.1701   18.8862   -0.8747 H   0  0  0  0  0  0  0  0  0  0  0  0
    2.1873   15.4407    2.1139 H   0  0  0  0  0  0  0  0  0  0  0  0
    3.7811   15.2060    1.3194 H   0  0  0  0  0  0  0  0  0  0  0  0
    3.0077   16.8272    1.3194 H   0  0  0  0  0  0  0  0  0  0  0  0
    3.7660   15.3333   -1.4753 H   0  0  0  0  0  0  0  0  0  0  0  0
    3.6893   13.9667   -0.2258 H   0  0  0  0  0  0  0  0  0  0  0  0
    2.1202   14.2021   -2.8078 H   0  0  0  0  0  0  0  0  0  0  0  0
    3.3897   12.9943   -2.3637 H   0  0  0  0  0  0  0  0  0  0  0  0
    1.8993   12.2250    0.7345 H   0  0  0  0  0  0  0  0  0  0  0  0
    1.8870   10.8047   -0.3653 H   0  0  0  0  0  0  0  0  0  0  0  0
    3.2883   11.9287   -0.3653 H   0  0  0  0  0  0  0  0  0  0  0  0
  1  2  1  0
  2  3  1  0
  3  4  1  0
  4  5  1  0
  5  6  1  0
  6  7  1  0
  7  8  1  0
  7  9  1  0
  2 10  1  0
 10 11  1  0
 11 12  1  0
 12 13  1  0
 13 14  1  6
 13 15  1  0
 15 16  1  0
 16 17  1  0
 17 18  2  0
 18 19  1  0
 19 20  1  0
 20 21  1  0
 21 22  1  0
 22 23  1  0
 22 24  1  0
 24 25  1  0
 24 26  1  0
 19 27  1  0
 27 28  1  1
 27 29  1  0
 29 30  1  0
 30 31  1  0
 31 32  1  1
  7  5  1  0
 31 10  1  0
 31 13  1  0
 27 15  1  0
 24 18  1  0
  1 33  1  0
  1 34  1  0
  1 35  1  0
  2 36  1  6
  3 37  1  0
  3 38  1  0
  4 39  1  0
  4 40  1  0
  5 41  1  1
  8 42  1  0
  8 43  1  0
  8 44  1  0
  9 45  1  0
  9 46  1  0
  9 47  1  0
 10 48  1  6
 11 49  1  0
 11 50  1  0
 12 51  1  0
 12 52  1  0
 14 53  1  0
 14 54  1  0
 14 55  1  0
 15 56  1  1
 16 57  1  0
 16 58  1  0
 17 59  1  0
 19 60  1  6
 20 61  1  0
 20 62  1  0
 21 63  1  0
 21 64  1  0
 22 65  1  6
 23 66  1  0
 25 67  1  0
 25 68  1  0
 25 69  1  0
 26 70  1  0
 26 71  1  0
 26 72  1  0
 28 73  1  0
 28 74  1  0
 28 75  1  0
 29 76  1  0
 29 77  1  0
 30 78  1  0
 30 79  1  0
 32 80  1  0
 32 81  1  0
 32 82  1  0
M  END
>  <meeko>  (17) 
{"is_sidechain": [false], "intermolecular_energy": 2.731, "internal_energy": -0.839}

$$$$
EPH_relaxed_0001_pdb2pqr_Repair_192_r2_0001_out
     RDKit          3D

 82 86  0  0  0  0  0  0  0  0999 V2000
   -4.0960    7.5350   -3.7380 C   0  0  0  0  0  0  0  0  0  0  0  0
   -3.6630    7.2980   -2.2880 C   0  0  2  0  0  0  0  0  0  0  0  0
   -4.7990    6.6990   -1.4340 C   0  0  0  0  0  0  0  0  0  0  0  0
   -6.1600    6.6950   -2.1350 C   0  0  0  0  0  0  0  0  0  0  0  0
   -7.2810    6.4660   -1.1670 C   0  0  2  0  0  0  0  0  0  0  0  0
   -8.3350    5.6280   -1.6590 O   0  0  0  0  0  0  0  0  0  0  0  0
   -8.6890    6.9920   -1.3780 C   0  0  0  0  0  0  0  0  0  0  0  0
   -9.0500    7.7900   -2.5920 C   0  0  0  0  0  0  0  0  0  0  0  0
   -9.5800    7.1500   -0.1850 C   0  0  0  0  0  0  0  0  0  0  0  0
   -3.1790    8.6040   -1.6700 C   0  0  1  0  0  0  0  0  0  0  0  0
   -3.8330    8.8920   -0.2930 C   0  0  0  0  0  0  0  0  0  0  0  0
   -2.7580    9.5970    0.5740 C   0  0  0  0  0  0  0  0  0  0  0  0
   -1.6460    9.9890   -0.4270 C   0  0  1  0  0  0  0  0  0  0  0  0
   -2.1530   11.3060   -1.0950 C   0  0  0  0  0  0  0  0  0  0  0  0
   -0.2100   10.1590    0.1680 C   0  0  2  0  0  0  0  0  0  0  0  0
   -0.0650   11.2800    1.2130 C   0  0  0  0  0  0  0  0  0  0  0  0
    0.3070   12.6180    0.6660 C   0  0  0  0  0  0  0  0  0  0  0  0
    0.7940   12.8500   -0.5680 C   0  0  0  0  0  0  0  0  0  0  0  0
    1.1080   11.6910   -1.5220 C   0  0  1  0  0  0  0  0  0  0  0  0
    2.5020   11.9120   -2.1640 C   0  0  0  0  0  0  0  0  0  0  0  0
    2.6260   13.2740   -2.8400 C   0  0  0  0  0  0  0  0  0  0  0  0
    2.3650   14.4020   -1.8450 C   0  0  2  0  0  0  0  0  0  0  0  0
    3.4160   14.4130   -0.8740 O   0  0  0  0  0  0  0  0  0  0  0  0
    0.9910   14.2800   -1.1280 C   0  0  0  0  0  0  0  0  0  0  0  0
   -0.1490   14.5700   -2.1350 C   0  0  0  0  0  0  0  0  0  0  0  0
    0.9140   15.3970   -0.0520 C   0  0  0  0  0  0  0  0  0  0  0  0
    0.9380   10.2310   -0.9190 C   0  0  1  0  0  0  0  0  0  0  0  0
    2.2540    9.7930   -0.2060 C   0  0  0  0  0  0  0  0  0  0  0  0
    0.7110    9.2110   -2.0970 C   0  0  0  0  0  0  0  0  0  0  0  0
   -0.7430    8.9970   -2.5590 C   0  0  0  0  0  0  0  0  0  0  0  0
   -1.6650    8.7290   -1.3660 C   0  0  2  0  0  0  0  0  0  0  0  0
   -1.1930    7.3980   -0.6870 C   0  0  0  0  0  0  0  0  0  0  0  0
   -5.0609    8.0631   -3.7509 H   0  0  0  0  0  0  0  0  0  0  0  0
   -3.3378    8.1439   -4.2522 H   0  0  0  0  0  0  0  0  0  0  0  0
   -4.2003    6.5682   -4.2522 H   0  0  0  0  0  0  0  0  0  0  0  0
   -2.8408    6.5674   -2.3028 H   0  0  0  0  0  0  0  0  0  0  0  0
   -4.5346    5.6611   -1.1832 H   0  0  0  0  0  0  0  0  0  0  0  0
   -4.8992    7.3342   -0.5415 H   0  0  0  0  0  0  0  0  0  0  0  0
   -6.3090    7.6660   -2.6299 H   0  0  0  0  0  0  0  0  0  0  0  0
   -6.1662    5.8744   -2.8675 H   0  0  0  0  0  0  0  0  0  0  0  0
   -6.5893    6.5304   -0.3141 H   0  0  0  0  0  0  0  0  0  0  0  0
   -9.4851    8.7517   -2.2826 H   0  0  0  0  0  0  0  0  0  0  0  0
   -8.1468    7.9725   -3.1928 H   0  0  0  0  0  0  0  0  0  0  0  0
   -9.7834    7.2321   -3.1928 H   0  0  0  0  0  0  0  0  0  0  0  0
   -8.9846    7.0444    0.7339 H   0  0  0  0  0  0  0  0  0  0  0  0
  -10.0482    8.1452   -0.2062 H   0  0  0  0  0  0  0  0  0  0  0  0
  -10.3618    6.3765   -0.2062 H   0  0  0  0  0  0  0  0  0  0  0  0
   -3.4604    9.3024   -2.4719 H   0  0  0  0  0  0  0  0  0  0  0  0
   -4.7077    9.5471   -0.4187 H   0  0  0  0  0  0  0  0  0  0  0  0
   -4.1769    7.9620    0.1832 H   0  0  0  0  0  0  0  0  0  0  0  0
   -3.1759   10.4909    1.0600 H   0  0  0  0  0  0  0  0  0  0  0  0
   -2.3837    8.9509    1.3818 H   0  0  0  0  0  0  0  0  0  0  0  0
   -2.4315   12.0294   -0.3145 H   0  0  0  0  0  0  0  0  0  0  0  0
   -1.3542   11.7309   -1.7206 H   0  0  0  0  0  0  0  0  0  0  0  0
   -3.0305   11.0856   -1.7206 H   0  0  0  0  0  0  0  0  0  0  0  0
   -0.0701    9.2169    0.7184 H   0  0  0  0  0  0  0  0  0  0  0  0
   -1.0267   11.3825    1.7370 H   0  0  0  0  0  0  0  0  0  0  0  0
    0.7647   10.9784    1.8693 H   0  0  0  0  0  0  0  0  0  0  0  0
    0.1721   13.4875    1.3261 H   0  0  0  0  0  0  0  0  0  0  0  0
    0.3306   11.7184   -2.2998 H   0  0  0  0  0  0  0  0  0  0  0  0
    3.2679   11.8375   -1.3780 H   0  0  0  0  0  0  0  0  0  0  0  0
    2.6390   11.1419   -2.9374 H   0  0  0  0  0  0  0  0  0  0  0  0
    3.6415   13.3821   -3.2486 H   0  0  0  0  0  0  0  0  0  0  0  0
    1.8791   13.3359   -3.6452 H   0  0  0  0  0  0  0  0  0  0  0  0
    2.3398   15.3439   -2.4127 H   0  0  0  0  0  0  0  0  0  0  0  0
    3.1610   13.8070   -0.1580 H   0  0  0  0  0  0  0  0  0  0  0  0
   -1.0726   14.8049   -1.5856 H   0  0  0  0  0  0  0  0  0  0  0  0
    0.1293   15.4260   -2.7674 H   0  0  0  0  0  0  0  0  0  0  0  0
   -0.3136   13.6851   -2.7674 H   0  0  0  0  0  0  0  0  0  0  0  0
    0.9452   14.9438    0.9498 H   0  0  0  0  0  0  0  0  0  0  0  0
    1.7671   16.0810   -0.1718 H   0  0  0  0  0  0  0  0  0  0  0  0
   -0.0249   15.9574   -0.1718 H   0  0  0  0  0  0  0  0  0  0  0  0
    2.1135    9.8398    0.8840 H   0  0  0  0  0  0  0  0  0  0  0  0
    2.5047    8.7630   -0.4995 H   0  0  0  0  0  0  0  0  0  0  0  0
    3.0720   10.4673   -0.4995 H   0  0  0  0  0  0  0  0  0  0  0  0
    1.2863    9.5695   -2.9633 H   0  0  0  0  0  0  0  0  0  0  0  0
    1.0339    8.2369   -1.7010 H   0  0  0  0  0  0  0  0  0  0  0  0
   -1.0893    9.8985   -3.0857 H   0  0  0  0  0  0  0  0  0  0  0  0
   -0.7730    8.1241   -3.2277 H   0  0  0  0  0  0  0  0  0  0  0  0
   -1.2328    7.5101    0.4066 H   0  0  0  0  0  0  0  0  0  0  0  0
   -1.8539    6.5746   -0.9954 H   0  0  0  0  0  0  0  0  0  0  0  0
   -0.1610    7.1750   -0.9954 H   0  0  0  0  0  0  0  0  0  0  0  0
  1  2  1  0
  2  3  1  0
  3  4  1  0
  4  5  1  0
  5  6  1  0
  6  7  1  0
  7  8  1  0
  7  9  1  0
  2 10  1  0
 10 11  1  0
 11 12  1  0
 12 13  1  0
 13 14  1  6
 13 15  1  0
 15 16  1  0
 16 17  1  0
 17 18  2  0
 18 19  1  0
 19 20  1  0
 20 21  1  0
 21 22  1  0
 22 23  1  0
 22 24  1  0
 24 25  1  0
 24 26  1  0
 19 27  1  0
 27 28  1  1
 27 29  1  0
 29 30  1  0
 30 31  1  0
 31 32  1  1
  7  5  1  0
 31 10  1  0
 31 13  1  0
 27 15  1  0
 24 18  1  0
  1 33  1  0
  1 34  1  0
  1 35  1  0
  2 36  1  6
  3 37  1  0
  3 38  1  0
  4 39  1  0
  4 40  1  0
  5 41  1  1
  8 42  1  0
  8 43  1  0
  8 44  1  0
  9 45  1  0
  9 46  1  0
  9 47  1  0
 10 48  1  6
 11 49  1  0
 11 50  1  0
 12 51  1  0
 12 52  1  0
 14 53  1  0
 14 54  1  0
 14 55  1  0
 15 56  1  1
 16 57  1  0
 16 58  1  0
 17 59  1  0
 19 60  1  6
 20 61  1  0
 20 62  1  0
 21 63  1  0
 21 64  1  0
 22 65  1  6
 23 66  1  0
 25 67  1  0
 25 68  1  0
 25 69  1  0
 26 70  1  0
 26 71  1  0
 26 72  1  0
 28 73  1  0
 28 74  1  0
 28 75  1  0
 29 76  1  0
 29 77  1  0
 30 78  1  0
 30 79  1  0
 32 80  1  0
 32 81  1  0
 32 82  1  0
M  END
>  <meeko>  (18) 
{"is_sidechain": [false], "intermolecular_energy": 2.731, "internal_energy": -0.839}

$$$$
