EPH_relaxed_0001_pdb2pqr_Repair_244_r2_0001_out
     RDKit          3D

 82 86  0  0  0  0  0  0  0  0999 V2000
   -1.5910    8.5700   -1.8100 C   0  0  0  0  0  0  0  0  0  0  0  0
   -2.0030    9.1490   -0.4540 C   0  0  2  0  0  0  0  0  0  0  0  0
   -3.4930    9.5470   -0.4210 C   0  0  0  0  0  0  0  0  0  0  0  0
   -4.4450    8.3540   -0.3000 C   0  0  0  0  0  0  0  0  0  0  0  0
   -5.0750    8.0120   -1.6160 C   0  0  2  0  0  0  0  0  0  0  0  0
   -6.3410    8.6400   -1.8560 O   0  0  0  0  0  0  0  0  0  0  0  0
   -6.3550    7.2080   -1.7480 C   0  0  0  0  0  0  0  0  0  0  0  0
   -7.0820    6.6960   -0.5440 C   0  0  0  0  0  0  0  0  0  0  0  0
   -6.6310    6.5080   -3.0420 C   0  0  0  0  0  0  0  0  0  0  0  0
   -1.1350   10.3560   -0.1200 C   0  0  1  0  0  0  0  0  0  0  0  0
   -0.0650   10.0420    0.9600 C   0  0  0  0  0  0  0  0  0  0  0  0
    1.1920   10.8760    0.6010 C   0  0  0  0  0  0  0  0  0  0  0  0
    0.7000   11.8830   -0.4650 C   0  0  1  0  0  0  0  0  0  0  0  0
    0.0180   13.0270    0.3490 C   0  0  0  0  0  0  0  0  0  0  0  0
    1.7860   12.4380   -1.4430 C   0  0  2  0  0  0  0  0  0  0  0  0
    2.9110   13.2490   -0.7770 C   0  0  0  0  0  0  0  0  0  0  0  0
    2.6600   14.7170   -0.6690 C   0  0  0  0  0  0  0  0  0  0  0  0
    1.7130   15.4000   -1.3380 C   0  0  0  0  0  0  0  0  0  0  0  0
    0.8330   14.7060   -2.3860 C   0  0  1  0  0  0  0  0  0  0  0  0
    0.7600   15.5830   -3.6640 C   0  0  0  0  0  0  0  0  0  0  0  0
    0.3030   17.0080   -3.3700 C   0  0  0  0  0  0  0  0  0  0  0  0
    1.2360   17.6850   -2.3690 C   0  0  2  0  0  0  0  0  0  0  0  0
    2.5170   17.8630   -2.9800 O   0  0  0  0  0  0  0  0  0  0  0  0
    1.3950   16.8870   -1.0440 C   0  0  0  0  0  0  0  0  0  0  0  0
    0.0760   16.9520   -0.2360 C   0  0  0  0  0  0  0  0  0  0  0  0
    2.4690   17.6040   -0.1810 C   0  0  0  0  0  0  0  0  0  0  0  0
    1.1970   13.1920   -2.7040 C   0  0  1  0  0  0  0  0  0  0  0  0
    2.2930   13.1300   -3.8120 C   0  0  0  0  0  0  0  0  0  0  0  0
   -0.0720   12.4710   -3.2940 C   0  0  0  0  0  0  0  0  0  0  0  0
   -1.0460   11.8390   -2.2810 C   0  0  0  0  0  0  0  0  0  0  0  0
   -0.2950   10.9690   -1.2690 C   0  0  2  0  0  0  0  0  0  0  0  0
    0.3830    9.7960   -2.0560 C   0  0  0  0  0  0  0  0  0  0  0  0
   -0.9597    7.6829   -1.6534 H   0  0  0  0  0  0  0  0  0  0  0  0
   -2.4904    8.2848   -2.3755 H   0  0  0  0  0  0  0  0  0  0  0  0
   -1.0268    9.3263   -2.3755 H   0  0  0  0  0  0  0  0  0  0  0  0
   -1.8542    8.3628    0.3009 H   0  0  0  0  0  0  0  0  0  0  0  0
   -3.6564   10.2107    0.4408 H   0  0  0  0  0  0  0  0  0  0  0  0
   -3.7156   10.0408   -1.3784 H   0  0  0  0  0  0  0  0  0  0  0  0
   -3.8800    7.4824    0.0620 H   0  0  0  0  0  0  0  0  0  0  0  0
   -5.2460    8.6245    0.4037 H   0  0  0  0  0  0  0  0  0  0  0  0
   -4.0867    7.9088   -2.0879 H   0  0  0  0  0  0  0  0  0  0  0  0
   -6.5780    7.0509    0.3671 H   0  0  0  0  0  0  0  0  0  0  0  0
   -8.1183    7.0647   -0.5571 H   0  0  0  0  0  0  0  0  0  0  0  0
   -7.0840    5.5961   -0.5571 H   0  0  0  0  0  0  0  0  0  0  0  0
   -7.0275    5.5025   -2.8376 H   0  0  0  0  0  0  0  0  0  0  0  0
   -7.3697    7.0830   -3.6196 H   0  0  0  0  0  0  0  0  0  0  0  0
   -5.6986    6.4241   -3.6196 H   0  0  0  0  0  0  0  0  0  0  0  0
   -1.9168   11.0636    0.1930 H   0  0  0  0  0  0  0  0  0  0  0  0
   -0.4367   10.3266    1.9554 H   0  0  0  0  0  0  0  0  0  0  0  0
    0.1680    8.9672    0.9840 H   0  0  0  0  0  0  0  0  0  0  0  0
    1.5739   11.4041    1.4872 H   0  0  0  0  0  0  0  0  0  0  0  0
    2.0178   10.2492    0.2334 H   0  0  0  0  0  0  0  0  0  0  0  0
    0.1347   12.8312    1.4251 H   0  0  0  0  0  0  0  0  0  0  0  0
    0.4908   13.9879    0.0978 H   0  0  0  0  0  0  0  0  0  0  0  0
   -1.0521   13.0681    0.0978 H   0  0  0  0  0  0  0  0  0  0  0  0
    2.2618   11.5184   -1.8143 H   0  0  0  0  0  0  0  0  0  0  0  0
    3.0596   12.8538    0.2387 H   0  0  0  0  0  0  0  0  0  0  0  0
    3.7922   13.1375   -1.4259 H   0  0  0  0  0  0  0  0  0  0  0  0
    3.3039   15.2887    0.0156 H   0  0  0  0  0  0  0  0  0  0  0  0
   -0.1667   14.6202   -1.9352 H   0  0  0  0  0  0  0  0  0  0  0  0
    1.7588   15.6207   -4.1233 H   0  0  0  0  0  0  0  0  0  0  0  0
    0.0207   15.1279   -4.3395 H   0  0  0  0  0  0  0  0  0  0  0  0
    0.2997   17.5853   -4.3063 H   0  0  0  0  0  0  0  0  0  0  0  0
   -0.7078   16.9702   -2.9376 H   0  0  0  0  0  0  0  0  0  0  0  0
    0.7864   18.6525   -2.1008 H   0  0  0  0  0  0  0  0  0  0  0  0
    3.0610   17.0890   -2.7550 H   0  0  0  0  0  0  0  0  0  0  0  0
    0.3042   16.9408    0.8400 H   0  0  0  0  0  0  0  0  0  0  0  0
   -0.4625   17.8778   -0.4870 H   0  0  0  0  0  0  0  0  0  0  0  0
   -0.5509   16.0837   -0.4870 H   0  0  0  0  0  0  0  0  0  0  0  0
    2.2433   17.4533    0.8850 H   0  0  0  0  0  0  0  0  0  0  0  0
    3.4609   17.1863   -0.4084 H   0  0  0  0  0  0  0  0  0  0  0  0
    2.4635   18.6802   -0.4084 H   0  0  0  0  0  0  0  0  0  0  0  0
    3.2862   13.0738   -3.3426 H   0  0  0  0  0  0  0  0  0  0  0  0
    2.1321   12.2395   -4.4374 H   0  0  0  0  0  0  0  0  0  0  0  0
    2.2336   14.0329   -4.4374 H   0  0  0  0  0  0  0  0  0  0  0  0
   -0.6351   13.2137   -3.8782 H   0  0  0  0  0  0  0  0  0  0  0  0
    0.3225   11.6271   -3.8789 H   0  0  0  0  0  0  0  0  0  0  0  0
   -1.5764   12.6393   -1.7441 H   0  0  0  0  0  0  0  0  0  0  0  0
   -1.7590   11.2048   -2.8282 H   0  0  0  0  0  0  0  0  0  0  0  0
    0.8023    9.0705   -1.3434 H   0  0  0  0  0  0  0  0  0  0  0  0
   -0.3663    9.2975   -2.6886 H   0  0  0  0  0  0  0  0  0  0  0  0
    1.1889   10.1964   -2.6886 H   0  0  0  0  0  0  0  0  0  0  0  0
  1  2  1  0
  2  3  1  0
  3  4  1  0
  4  5  1  0
  5  6  1  0
  6  7  1  0
  7  8  1  0
  7  9  1  0
  2 10  1  0
 10 11  1  0
 11 12  1  0
 12 13  1  0
 13 14  1  1
 13 15  1  0
 15 16  1  0
 16 17  1  0
 17 18  2  0
 18 19  1  0
 19 20  1  0
 20 21  1  0
 21 22  1  0
 22 23  1  0
 22 24  1  0
 24 25  1  0
 24 26  1  0
 19 27  1  0
 27 28  1  6
 27 29  1  0
 29 30  1  0
 30 31  1  0
 31 32  1  6
  7  5  1  0
 31 10  1  0
 31 13  1  0
 27 15  1  0
 24 18  1  0
  1 33  1  0
  1 34  1  0
  1 35  1  0
  2 36  1  1
  3 37  1  0
  3 38  1  0
  4 39  1  0
  4 40  1  0
  5 41  1  6
  8 42  1  0
  8 43  1  0
  8 44  1  0
  9 45  1  0
  9 46  1  0
  9 47  1  0
 10 48  1  1
 11 49  1  0
 11 50  1  0
 12 51  1  0
 12 52  1  0
 14 53  1  0
 14 54  1  0
 14 55  1  0
 15 56  1  6
 16 57  1  0
 16 58  1  0
 17 59  1  0
 19 60  1  1
 20 61  1  0
 20 62  1  0
 21 63  1  0
 21 64  1  0
 22 65  1  1
 23 66  1  0
 25 67  1  0
 25 68  1  0
 25 69  1  0
 26 70  1  0
 26 71  1  0
 26 72  1  0
 28 73  1  0
 28 74  1  0
 28 75  1  0
 29 76  1  0
 29 77  1  0
 30 78  1  0
 30 79  1  0
 32 80  1  0
 32 81  1  0
 32 82  1  0
M  END
>  <meeko>  (1) 
{"is_sidechain": [false], "intermolecular_energy": 2.731, "internal_energy": -0.839}

$$$$
EPH_relaxed_0001_pdb2pqr_Repair_244_r2_0001_out
     RDKit          3D

 82 86  0  0  0  0  0  0  0  0999 V2000
    4.2160   17.5670   -0.5390 C   0  0  0  0  0  0  0  0  0  0  0  0
    2.8610   18.1270   -0.0970 C   0  0  2  0  0  0  0  0  0  0  0  0
    2.9310   18.7840    1.2960 C   0  0  0  0  0  0  0  0  0  0  0  0
    4.3120   18.6950    1.9500 C   0  0  0  0  0  0  0  0  0  0  0  0
    4.3110   19.2820    3.3290 C   0  0  2  0  0  0  0  0  0  0  0  0
    5.3850   20.1940    3.5920 O   0  0  0  0  0  0  0  0  0  0  0  0
    5.3780   18.9840    4.3660 C   0  0  0  0  0  0  0  0  0  0  0  0
    6.5210   18.0650    4.0670 C   0  0  0  0  0  0  0  0  0  0  0  0
    5.0500   19.1940    5.8110 C   0  0  0  0  0  0  0  0  0  0  0  0
    1.8150   17.0180   -0.0980 C   0  0  1  0  0  0  0  0  0  0  0  0
    0.3890   17.5420   -0.4140 C   0  0  0  0  0  0  0  0  0  0  0  0
   -0.3250   16.4320   -1.2280 C   0  0  0  0  0  0  0  0  0  0  0  0
    0.5800   15.1890   -1.0700 C   0  0  1  0  0  0  0  0  0  0  0  0
    0.2000   14.5890    0.3200 C   0  0  0  0  0  0  0  0  0  0  0  0
    0.4870   14.1180   -2.2050 C   0  0  2  0  0  0  0  0  0  0  0  0
   -0.8910   13.4520   -2.3630 C   0  0  0  0  0  0  0  0  0  0  0  0
   -1.0950   12.2100   -1.5600 C   0  0  0  0  0  0  0  0  0  0  0  0
   -0.1230   11.4930   -0.9680 C   0  0  0  0  0  0  0  0  0  0  0  0
    1.3550   11.8610   -1.1580 C   0  0  1  0  0  0  0  0  0  0  0  0
    2.1700   10.5810   -1.4780 C   0  0  0  0  0  0  0  0  0  0  0  0
    1.9720    9.4850   -0.4350 C   0  0  0  0  0  0  0  0  0  0  0  0
    0.4980    9.1060   -0.3160 C   0  0  2  0  0  0  0  0  0  0  0  0
    0.0810    8.4860   -1.5370 O   0  0  0  0  0  0  0  0  0  0  0  0
   -0.4240   10.3180   -0.0050 C   0  0  0  0  0  0  0  0  0  0  0  0
   -0.1760   10.8020    1.4450 C   0  0  0  0  0  0  0  0  0  0  0  0
   -1.8950    9.8240   -0.0520 C   0  0  0  0  0  0  0  0  0  0  0  0
    1.6490   13.0430   -2.1790 C   0  0  1  0  0  0  0  0  0  0  0  0
    1.7650   12.4780   -3.6280 C   0  0  0  0  0  0  0  0  0  0  0  0
    3.0470   13.6810   -1.8380 C   0  0  0  0  0  0  0  0  0  0  0  0
    3.0570   14.8160   -0.7960 C   0  0  0  0  0  0  0  0  0  0  0  0
    1.9960   15.8710   -1.1240 C   0  0  2  0  0  0  0  0  0  0  0  0
    2.3640   16.5070   -2.5070 C   0  0  0  0  0  0  0  0  0  0  0  0
    4.8171   17.3186    0.3481 H   0  0  0  0  0  0  0  0  0  0  0  0
    4.0591   16.6600   -1.1413 H   0  0  0  0  0  0  0  0  0  0  0  0
    4.7452   18.3201   -1.1413 H   0  0  0  0  0  0  0  0  0  0  0  0
    2.5750   18.9084   -0.8165 H   0  0  0  0  0  0  0  0  0  0  0  0
    2.6635   19.8460    1.1928 H   0  0  0  0  0  0  0  0  0  0  0  0
    2.2322   18.2361    1.9451 H   0  0  0  0  0  0  0  0  0  0  0  0
    4.6093   17.6378    2.0128 H   0  0  0  0  0  0  0  0  0  0  0  0
    5.0208   19.2678    1.3339 H   0  0  0  0  0  0  0  0  0  0  0  0
    3.2123   19.2455    3.3692 H   0  0  0  0  0  0  0  0  0  0  0  0
    6.9624   17.7101    5.0099 H   0  0  0  0  0  0  0  0  0  0  0  0
    6.1575   17.2048    3.4857 H   0  0  0  0  0  0  0  0  0  0  0  0
    7.2831   18.6047    3.4857 H   0  0  0  0  0  0  0  0  0  0  0  0
    5.8130   18.7055    6.4349 H   0  0  0  0  0  0  0  0  0  0  0  0
    5.0323   20.2718    6.0301 H   0  0  0  0  0  0  0  0  0  0  0  0
    4.0637   18.7590    6.0301 H   0  0  0  0  0  0  0  0  0  0  0  0
    1.9520   16.6342    0.9237 H   0  0  0  0  0  0  0  0  0  0  0  0
   -0.1581   17.7383    0.5199 H   0  0  0  0  0  0  0  0  0  0  0  0
    0.4308   18.4833   -0.9816 H   0  0  0  0  0  0  0  0  0  0  0  0
   -1.3280   16.2363   -0.8210 H   0  0  0  0  0  0  0  0  0  0  0  0
   -0.4668   16.7134   -2.2819 H   0  0  0  0  0  0  0  0  0  0  0  0
    0.6049   15.2283    1.1184 H   0  0  0  0  0  0  0  0  0  0  0  0
   -0.8951   14.5385    0.4106 H   0  0  0  0  0  0  0  0  0  0  0  0
    0.6224   13.5774    0.4106 H   0  0  0  0  0  0  0  0  0  0  0  0
    0.6318   14.7231   -3.1121 H   0  0  0  0  0  0  0  0  0  0  0  0
   -1.6575   14.1812   -2.0617 H   0  0  0  0  0  0  0  0  0  0  0  0
   -0.9627   13.1477   -3.4176 H   0  0  0  0  0  0  0  0  0  0  0  0
   -2.1280   11.8507   -1.4425 H   0  0  0  0  0  0  0  0  0  0  0  0
    1.6886   12.2858   -0.1998 H   0  0  0  0  0  0  0  0  0  0  0  0
    1.8520   10.1964   -2.4583 H   0  0  0  0  0  0  0  0  0  0  0  0
    3.2354   10.8546   -1.4766 H   0  0  0  0  0  0  0  0  0  0  0  0
    2.5494    8.5970   -0.7317 H   0  0  0  0  0  0  0  0  0  0  0  0
    2.3181    9.8604    0.5393 H   0  0  0  0  0  0  0  0  0  0  0  0
    0.4038    8.4141    0.5339 H   0  0  0  0  0  0  0  0  0  0  0  0
   -0.2590    9.1850   -2.1210 H   0  0  0  0  0  0  0  0  0  0  0  0
   -0.5601   10.0524    2.1525 H   0  0  0  0  0  0  0  0  0  0  0  0
    0.9034   10.9391    1.6062 H   0  0  0  0  0  0  0  0  0  0  0  0
   -0.6952   11.7583    1.6062 H   0  0  0  0  0  0  0  0  0  0  0  0
   -2.2722    9.6973    0.9735 H   0  0  0  0  0  0  0  0  0  0  0  0
   -2.5135   10.5637   -0.5814 H   0  0  0  0  0  0  0  0  0  0  0  0
   -1.9416    8.8609   -0.5814 H   0  0  0  0  0  0  0  0  0  0  0  0
    1.9861   11.4013   -3.5851 H   0  0  0  0  0  0  0  0  0  0  0  0
    0.8156   12.6365   -4.1604 H   0  0  0  0  0  0  0  0  0  0  0  0
    2.5752   12.9977   -4.1604 H   0  0  0  0  0  0  0  0  0  0  0  0
    3.6965   12.8773   -1.4609 H   0  0  0  0  0  0  0  0  0  0  0  0
    3.3869   14.1471   -2.7746 H   0  0  0  0  0  0  0  0  0  0  0  0
    2.8491   14.3936    0.1982 H   0  0  0  0  0  0  0  0  0  0  0  0
    4.0461   15.2970   -0.8109 H   0  0  0  0  0  0  0  0  0  0  0  0
    2.9088   17.4486   -2.3442 H   0  0  0  0  0  0  0  0  0  0  0  0
    2.9982   15.8097   -3.0741 H   0  0  0  0  0  0  0  0  0  0  0  0
    1.4434   16.7094   -3.0741 H   0  0  0  0  0  0  0  0  0  0  0  0
  1  2  1  0
  2  3  1  0
  3  4  1  0
  4  5  1  0
  5  6  1  0
  6  7  1  0
  7  8  1  0
  7  9  1  0
  2 10  1  0
 10 11  1  0
 11 12  1  0
 12 13  1  0
 13 14  1  1
 13 15  1  0
 15 16  1  0
 16 17  1  0
 17 18  2  0
 18 19  1  0
 19 20  1  0
 20 21  1  0
 21 22  1  0
 22 23  1  0
 22 24  1  0
 24 25  1  0
 24 26  1  0
 19 27  1  0
 27 28  1  6
 27 29  1  0
 29 30  1  0
 30 31  1  0
 31 32  1  6
  7  5  1  0
 31 10  1  0
 31 13  1  0
 27 15  1  0
 24 18  1  0
  1 33  1  0
  1 34  1  0
  1 35  1  0
  2 36  1  6
  3 37  1  0
  3 38  1  0
  4 39  1  0
  4 40  1  0
  5 41  1  1
  8 42  1  0
  8 43  1  0
  8 44  1  0
  9 45  1  0
  9 46  1  0
  9 47  1  0
 10 48  1  1
 11 49  1  0
 11 50  1  0
 12 51  1  0
 12 52  1  0
 14 53  1  0
 14 54  1  0
 14 55  1  0
 15 56  1  6
 16 57  1  0
 16 58  1  0
 17 59  1  0
 19 60  1  1
 20 61  1  0
 20 62  1  0
 21 63  1  0
 21 64  1  0
 22 65  1  1
 23 66  1  0
 25 67  1  0
 25 68  1  0
 25 69  1  0
 26 70  1  0
 26 71  1  0
 26 72  1  0
 28 73  1  0
 28 74  1  0
 28 75  1  0
 29 76  1  0
 29 77  1  0
 30 78  1  0
 30 79  1  0
 32 80  1  0
 32 81  1  0
 32 82  1  0
M  END
>  <meeko>  (2) 
{"is_sidechain": [false], "intermolecular_energy": 2.731, "internal_energy": -0.839}

$$$$
EPH_relaxed_0001_pdb2pqr_Repair_244_r2_0001_out
     RDKit          3D

 82 86  0  0  0  0  0  0  0  0999 V2000
    0.4390   18.4580    0.0090 C   0  0  0  0  0  0  0  0  0  0  0  0
    1.5230   17.4000   -0.2130 C   0  0  2  0  0  0  0  0  0  0  0  0
    2.7400   17.9670   -0.9720 C   0  0  0  0  0  0  0  0  0  0  0  0
    3.9710   18.1810   -0.0880 C   0  0  0  0  0  0  0  0  0  0  0  0
    3.5940   18.6520    1.2840 C   0  0  2  0  0  0  0  0  0  0  0  0
    3.8440   20.0420    1.5300 O   0  0  0  0  0  0  0  0  0  0  0  0
    4.6040   19.1120    2.3180 C   0  0  0  0  0  0  0  0  0  0  0  0
    6.0720   19.1230    2.0250 C   0  0  0  0  0  0  0  0  0  0  0  0
    4.2120   19.0850    3.7630 C   0  0  0  0  0  0  0  0  0  0  0  0
    0.9430   16.2120   -0.9720 C   0  0  1  0  0  0  0  0  0  0  0  0
    0.7850   16.4930   -2.4900 C   0  0  0  0  0  0  0  0  0  0  0  0
    1.0700   15.1570   -3.2240 C   0  0  0  0  0  0  0  0  0  0  0  0
    1.0540   14.0870   -2.1070 C   0  0  1  0  0  0  0  0  0  0  0  0
   -0.4570   13.7790   -1.8680 C   0  0  0  0  0  0  0  0  0  0  0  0
    1.8720   12.7840   -2.3860 C   0  0  2  0  0  0  0  0  0  0  0  0
    1.3850   11.9540   -3.5870 C   0  0  0  0  0  0  0  0  0  0  0  0
    0.3660   10.9110   -3.2690 C   0  0  0  0  0  0  0  0  0  0  0  0
    0.0690   10.4560   -2.0380 C   0  0  0  0  0  0  0  0  0  0  0  0
    0.8590   10.9310   -0.8110 C   0  0  1  0  0  0  0  0  0  0  0  0
    1.2380    9.7080    0.0650 C   0  0  0  0  0  0  0  0  0  0  0  0
    0.0270    8.8610    0.4430 C   0  0  0  0  0  0  0  0  0  0  0  0
   -0.6990    8.3600   -0.8030 C   0  0  2  0  0  0  0  0  0  0  0  0
    0.1520    7.4390   -1.4920 O   0  0  0  0  0  0  0  0  0  0  0  0
   -1.1220    9.5030   -1.7670 C   0  0  0  0  0  0  0  0  0  0  0  0
   -2.2680   10.3260   -1.1280 C   0  0  0  0  0  0  0  0  0  0  0  0
   -1.7150    8.8540   -3.0460 C   0  0  0  0  0  0  0  0  0  0  0  0
    2.1010   11.8770   -1.1100 C   0  0  1  0  0  0  0  0  0  0  0  0
    3.3680   11.0150   -1.3980 C   0  0  0  0  0  0  0  0  0  0  0  0
    2.4230   12.7240    0.1770 C   0  0  0  0  0  0  0  0  0  0  0  0
    1.6700   14.0590    0.3360 C   0  0  0  0  0  0  0  0  0  0  0  0
    1.7500   14.8900   -0.9480 C   0  0  2  0  0  0  0  0  0  0  0  0
    3.2580   15.2340   -1.2020 C   0  0  0  0  0  0  0  0  0  0  0  0
    0.2870   18.6064    1.0883 H   0  0  0  0  0  0  0  0  0  0  0  0
    0.7529   19.4067   -0.4509 H   0  0  0  0  0  0  0  0  0  0  0  0
   -0.5018   18.1212   -0.4509 H   0  0  0  0  0  0  0  0  0  0  0  0
    1.8738   17.0727    0.7769 H   0  0  0  0  0  0  0  0  0  0  0  0
    3.0069   17.2641   -1.7749 H   0  0  0  0  0  0  0  0  0  0  0  0
    2.4464   18.9540   -1.3589 H   0  0  0  0  0  0  0  0  0  0  0  0
    4.5168   17.2299   -0.0008 H   0  0  0  0  0  0  0  0  0  0  0  0
    4.5982   18.9544   -0.5554 H   0  0  0  0  0  0  0  0  0  0  0  0
    2.7682   17.9269    1.3310 H   0  0  0  0  0  0  0  0  0  0  0  0
    6.6345   19.1272    2.9703 H   0  0  0  0  0  0  0  0  0  0  0  0
    6.3368   18.2268    1.4447 H   0  0  0  0  0  0  0  0  0  0  0  0
    6.3233   20.0231    1.4447 H   0  0  0  0  0  0  0  0  0  0  0  0
    5.1144   19.1472    4.3889 H   0  0  0  0  0  0  0  0  0  0  0  0
    3.5551   19.9400    3.9808 H   0  0  0  0  0  0  0  0  0  0  0  0
    3.6785   18.1480    3.9808 H   0  0  0  0  0  0  0  0  0  0  0  0
   -0.0017   16.0856   -0.4229 H   0  0  0  0  0  0  0  0  0  0  0  0
   -0.2379   16.8342   -2.7077 H   0  0  0  0  0  0  0  0  0  0  0  0
    1.4780   17.2809   -2.8202 H   0  0  0  0  0  0  0  0  0  0  0  0
    0.2895   14.9502   -3.9711 H   0  0  0  0  0  0  0  0  0  0  0  0
    2.0250   15.1762   -3.7696 H   0  0  0  0  0  0  0  0  0  0  0  0
   -0.6564   13.7384   -0.7870 H   0  0  0  0  0  0  0  0  0  0  0  0
   -1.0692   14.5708   -2.3243 H   0  0  0  0  0  0  0  0  0  0  0  0
   -0.7105   12.8107   -2.3243 H   0  0  0  0  0  0  0  0  0  0  0  0
    2.8566   13.1797   -2.6758 H   0  0  0  0  0  0  0  0  0  0  0  0
    0.9465   12.6447   -4.3223 H   0  0  0  0  0  0  0  0  0  0  0  0
    2.2670   11.4139   -3.9618 H   0  0  0  0  0  0  0  0  0  0  0  0
   -0.1899   10.4771   -4.1132 H   0  0  0  0  0  0  0  0  0  0  0  0
    0.1838   11.5955   -0.2520 H   0  0  0  0  0  0  0  0  0  0  0  0
    1.9468    9.0798   -0.4944 H   0  0  0  0  0  0  0  0  0  0  0  0
    1.6823   10.0894    0.9962 H   0  0  0  0  0  0  0  0  0  0  0  0
    0.3627    7.9973    1.0357 H   0  0  0  0  0  0  0  0  0  0  0  0
   -0.6672    9.4824    1.0277 H   0  0  0  0  0  0  0  0  0  0  0  0
   -1.6270    7.8716   -0.4708 H   0  0  0  0  0  0  0  0  0  0  0  0
    0.4390    7.8650   -2.3180 H   0  0  0  0  0  0  0  0  0  0  0  0
   -2.1918   10.2713   -0.0320 H   0  0  0  0  0  0  0  0  0  0  0  0
   -2.1892   11.3751   -1.4491 H   0  0  0  0  0  0  0  0  0  0  0  0
   -3.2370    9.9161   -1.4491 H   0  0  0  0  0  0  0  0  0  0  0  0
   -2.4316    8.0697   -2.7607 H   0  0  0  0  0  0  0  0  0  0  0  0
   -2.2299    9.6220   -3.6419 H   0  0  0  0  0  0  0  0  0  0  0  0
   -0.9038    8.4103   -3.6419 H   0  0  0  0  0  0  0  0  0  0  0  0
    3.8243   10.7045   -0.4465 H   0  0  0  0  0  0  0  0  0  0  0  0
    3.0815   10.1236   -1.9753 H   0  0  0  0  0  0  0  0  0  0  0  0
    4.0920   11.6088   -1.9753 H   0  0  0  0  0  0  0  0  0  0  0  0
    2.1862   12.1019    1.0527 H   0  0  0  0  0  0  0  0  0  0  0  0
    3.4833   13.0009    0.0817 H   0  0  0  0  0  0  0  0  0  0  0  0
    0.6143   13.8516    0.5652 H   0  0  0  0  0  0  0  0  0  0  0  0
    2.1364   14.6296    1.1526 H   0  0  0  0  0  0  0  0  0  0  0  0
    3.7746   15.3518   -0.2380 H   0  0  0  0  0  0  0  0  0  0  0  0
    3.7286   14.4201   -1.7731 H   0  0  0  0  0  0  0  0  0  0  0  0
    3.3291   16.1714   -1.7731 H   0  0  0  0  0  0  0  0  0  0  0  0
  1  2  1  0
  2  3  1  0
  3  4  1  0
  4  5  1  0
  5  6  1  0
  6  7  1  0
  7  8  1  0
  7  9  1  0
  2 10  1  0
 10 11  1  0
 11 12  1  0
 12 13  1  0
 13 14  1  1
 13 15  1  0
 15 16  1  0
 16 17  1  0
 17 18  2  0
 18 19  1  0
 19 20  1  0
 20 21  1  0
 21 22  1  0
 22 23  1  0
 22 24  1  0
 24 25  1  0
 24 26  1  0
 19 27  1  0
 27 28  1  6
 27 29  1  0
 29 30  1  0
 30 31  1  0
 31 32  1  6
  7  5  1  0
 31 10  1  0
 31 13  1  0
 27 15  1  0
 24 18  1  0
  1 33  1  0
  1 34  1  0
  1 35  1  0
  2 36  1  1
  3 37  1  0
  3 38  1  0
  4 39  1  0
  4 40  1  0
  5 41  1  1
  8 42  1  0
  8 43  1  0
  8 44  1  0
  9 45  1  0
  9 46  1  0
  9 47  1  0
 10 48  1  1
 11 49  1  0
 11 50  1  0
 12 51  1  0
 12 52  1  0
 14 53  1  0
 14 54  1  0
 14 55  1  0
 15 56  1  6
 16 57  1  0
 16 58  1  0
 17 59  1  0
 19 60  1  1
 20 61  1  0
 20 62  1  0
 21 63  1  0
 21 64  1  0
 22 65  1  1
 23 66  1  0
 25 67  1  0
 25 68  1  0
 25 69  1  0
 26 70  1  0
 26 71  1  0
 26 72  1  0
 28 73  1  0
 28 74  1  0
 28 75  1  0
 29 76  1  0
 29 77  1  0
 30 78  1  0
 30 79  1  0
 32 80  1  0
 32 81  1  0
 32 82  1  0
M  END
>  <meeko>  (3) 
{"is_sidechain": [false], "intermolecular_energy": 2.731, "internal_energy": -0.839}

$$$$
EPH_relaxed_0001_pdb2pqr_Repair_244_r2_0001_out
     RDKit          3D

 82 86  0  0  0  0  0  0  0  0999 V2000
    2.1060   18.2170   -2.8440 C   0  0  0  0  0  0  0  0  0  0  0  0
    1.0750   17.6540   -1.8620 C   0  0  2  0  0  0  0  0  0  0  0  0
    1.6220   17.5840   -0.4220 C   0  0  0  0  0  0  0  0  0  0  0  0
    1.4640   18.8900    0.3600 C   0  0  0  0  0  0  0  0  0  0  0  0
    0.2860   19.6840   -0.1190 C   0  0  2  0  0  0  0  0  0  0  0  0
   -0.5570   20.1920    0.9230 O   0  0  0  0  0  0  0  0  0  0  0  0
   -1.1520   19.2270    0.0410 C   0  0  0  0  0  0  0  0  0  0  0  0
   -1.4890   17.9270    0.7000 C   0  0  0  0  0  0  0  0  0  0  0  0
   -2.1910   19.8030   -0.8710 C   0  0  0  0  0  0  0  0  0  0  0  0
    0.6270   16.2700   -2.3170 C   0  0  1  0  0  0  0  0  0  0  0  0
    0.7030   16.0930   -3.8570 C   0  0  0  0  0  0  0  0  0  0  0  0
    1.1070   14.6200   -4.1200 C   0  0  0  0  0  0  0  0  0  0  0  0
    0.9260   13.9170   -2.7540 C   0  0  1  0  0  0  0  0  0  0  0  0
   -0.6020   13.6140   -2.6580 C   0  0  0  0  0  0  0  0  0  0  0  0
    1.7860   12.6320   -2.5180 C   0  0  2  0  0  0  0  0  0  0  0  0
    1.4960   11.4680   -3.4820 C   0  0  0  0  0  0  0  0  0  0  0  0
    0.4460   10.5090   -3.0260 C   0  0  0  0  0  0  0  0  0  0  0  0
   -0.0340   10.4130   -1.7720 C   0  0  0  0  0  0  0  0  0  0  0  0
    0.5540   11.2600   -0.6360 C   0  0  1  0  0  0  0  0  0  0  0  0
    0.8020   10.3630    0.6040 C   0  0  0  0  0  0  0  0  0  0  0  0
   -0.4470    9.5990    1.0330 C   0  0  0  0  0  0  0  0  0  0  0  0
   -0.9680    8.7240   -0.1040 C   0  0  2  0  0  0  0  0  0  0  0  0
   -0.0150    7.6890   -0.3630 O   0  0  0  0  0  0  0  0  0  0  0  0
   -1.2450    9.5180   -1.4110 C   0  0  0  0  0  0  0  0  0  0  0  0
   -2.4820   10.4300   -1.2140 C   0  0  0  0  0  0  0  0  0  0  0  0
   -1.6300    8.4990   -2.5170 C   0  0  0  0  0  0  0  0  0  0  0  0
    1.8210   12.1430   -1.0140 C   0  0  1  0  0  0  0  0  0  0  0  0
    3.1240   11.3010   -0.8500 C   0  0  0  0  0  0  0  0  0  0  0  0
    1.9350   13.3400    0.0020 C   0  0  0  0  0  0  0  0  0  0  0  0
    1.1580   14.6240   -0.3460 C   0  0  0  0  0  0  0  0  0  0  0  0
    1.4300   15.0530   -1.7910 C   0  0  2  0  0  0  0  0  0  0  0  0
    2.9560   15.3870   -1.9130 C   0  0  0  0  0  0  0  0  0  0  0  0
    2.9367   18.6706   -2.2835 H   0  0  0  0  0  0  0  0  0  0  0  0
    2.4915   17.4042   -3.4770 H   0  0  0  0  0  0  0  0  0  0  0  0
    1.6306   18.9807   -3.4770 H   0  0  0  0  0  0  0  0  0  0  0  0
    0.2151   18.3400   -1.8549 H   0  0  0  0  0  0  0  0  0  0  0  0
    1.0835   16.7898    0.1159 H   0  0  0  0  0  0  0  0  0  0  0  0
    2.7008   17.3827   -0.4972 H   0  0  0  0  0  0  0  0  0  0  0  0
    1.3249   18.6531    1.4252 H   0  0  0  0  0  0  0  0  0  0  0  0
    2.3703   19.4940    0.2056 H   0  0  0  0  0  0  0  0  0  0  0  0
    0.8531   20.0442   -0.9900 H   0  0  0  0  0  0  0  0  0  0  0  0
   -1.4570   18.0506    1.7926 H   0  0  0  0  0  0  0  0  0  0  0  0
   -2.4983   17.6126    0.3960 H   0  0  0  0  0  0  0  0  0  0  0  0
   -0.7595   17.1619    0.3960 H   0  0  0  0  0  0  0  0  0  0  0  0
   -2.9977   20.2502   -0.2716 H   0  0  0  0  0  0  0  0  0  0  0  0
   -1.7337   20.5764   -1.5056 H   0  0  0  0  0  0  0  0  0  0  0  0
   -2.6047   19.0054   -1.5056 H   0  0  0  0  0  0  0  0  0  0  0  0
   -0.3901   16.2596   -1.8983 H   0  0  0  0  0  0  0  0  0  0  0  0
   -0.2765   16.3037   -4.3110 H   0  0  0  0  0  0  0  0  0  0  0  0
    1.4336   16.7870   -4.2981 H   0  0  0  0  0  0  0  0  0  0  0  0
    0.4527   14.1674   -4.8796 H   0  0  0  0  0  0  0  0  0  0  0  0
    2.1344   14.5308   -4.5027 H   0  0  0  0  0  0  0  0  0  0  0  0
   -0.8984   13.5552   -1.6003 H   0  0  0  0  0  0  0  0  0  0  0  0
   -1.1670   14.4176   -3.1530 H   0  0  0  0  0  0  0  0  0  0  0  0
   -0.8176   12.6556   -3.1530 H   0  0  0  0  0  0  0  0  0  0  0  0
    2.8009   12.9777   -2.7638 H   0  0  0  0  0  0  0  0  0  0  0  0
    1.1724   11.8949   -4.4428 H   0  0  0  0  0  0  0  0  0  0  0  0
    2.4288   10.8888   -3.5493 H   0  0  0  0  0  0  0  0  0  0  0  0
    0.0296    9.8231   -3.7784 H   0  0  0  0  0  0  0  0  0  0  0  0
   -0.2046   12.0208   -0.4000 H   0  0  0  0  0  0  0  0  0  0  0  0
    1.5931    9.6380    0.3621 H   0  0  0  0  0  0  0  0  0  0  0  0
    1.0947   11.0188    1.4372 H   0  0  0  0  0  0  0  0  0  0  0  0
   -0.2007    8.9610    1.8945 H   0  0  0  0  0  0  0  0  0  0  0  0
   -1.2276   10.3254    1.3033 H   0  0  0  0  0  0  0  0  0  0  0  0
   -1.9325    8.3046    0.2183 H   0  0  0  0  0  0  0  0  0  0  0  0
    0.4770    7.5290    0.4600 H   0  0  0  0  0  0  0  0  0  0  0  0
   -2.6686   10.5676   -0.1387 H   0  0  0  0  0  0  0  0  0  0  0  0
   -2.2948   11.4079   -1.6817 H   0  0  0  0  0  0  0  0  0  0  0  0
   -3.3608    9.9620   -1.6817 H   0  0  0  0  0  0  0  0  0  0  0  0
   -1.9821    7.5671   -2.0505 H   0  0  0  0  0  0  0  0  0  0  0  0
   -2.4305    8.9213   -3.1421 H   0  0  0  0  0  0  0  0  0  0  0  0
   -0.7502    8.2865   -3.1421 H   0  0  0  0  0  0  0  0  0  0  0  0
    3.3387   11.1623    0.2199 H   0  0  0  0  0  0  0  0  0  0  0  0
    2.9886   10.3192   -1.3271 H   0  0  0  0  0  0  0  0  0  0  0  0
    3.9635   11.8279   -1.3271 H   0  0  0  0  0  0  0  0  0  0  0  0
    1.5704   12.9845    0.9770 H   0  0  0  0  0  0  0  0  0  0  0  0
    2.9954   13.6320   -0.0156 H   0  0  0  0  0  0  0  0  0  0  0  0
    0.0809   14.4378   -0.2223 H   0  0  0  0  0  0  0  0  0  0  0  0
    1.4888   15.4283    0.3275 H   0  0  0  0  0  0  0  0  0  0  0  0
    3.3920   15.4824   -0.9076 H   0  0  0  0  0  0  0  0  0  0  0  0
    3.4657   14.5792   -2.4585 H   0  0  0  0  0  0  0  0  0  0  0  0
    3.0816   16.3339   -2.4585 H   0  0  0  0  0  0  0  0  0  0  0  0
  1  2  1  0
  2  3  1  0
  3  4  1  0
  4  5  1  0
  5  6  1  0
  6  7  1  0
  7  8  1  0
  7  9  1  0
  2 10  1  0
 10 11  1  0
 11 12  1  0
 12 13  1  0
 13 14  1  1
 13 15  1  0
 15 16  1  0
 16 17  1  0
 17 18  2  0
 18 19  1  0
 19 20  1  0
 20 21  1  0
 21 22  1  0
 22 23  1  0
 22 24  1  0
 24 25  1  0
 24 26  1  0
 19 27  1  0
 27 28  1  6
 27 29  1  0
 29 30  1  0
 30 31  1  0
 31 32  1  1
  7  5  1  0
 31 10  1  0
 31 13  1  0
 27 15  1  0
 24 18  1  0
  1 33  1  0
  1 34  1  0
  1 35  1  0
  2 36  1  1
  3 37  1  0
  3 38  1  0
  4 39  1  0
  4 40  1  0
  5 41  1  6
  8 42  1  0
  8 43  1  0
  8 44  1  0
  9 45  1  0
  9 46  1  0
  9 47  1  0
 10 48  1  1
 11 49  1  0
 11 50  1  0
 12 51  1  0
 12 52  1  0
 14 53  1  0
 14 54  1  0
 14 55  1  0
 15 56  1  6
 16 57  1  0
 16 58  1  0
 17 59  1  0
 19 60  1  1
 20 61  1  0
 20 62  1  0
 21 63  1  0
 21 64  1  0
 22 65  1  1
 23 66  1  0
 25 67  1  0
 25 68  1  0
 25 69  1  0
 26 70  1  0
 26 71  1  0
 26 72  1  0
 28 73  1  0
 28 74  1  0
 28 75  1  0
 29 76  1  0
 29 77  1  0
 30 78  1  0
 30 79  1  0
 32 80  1  0
 32 81  1  0
 32 82  1  0
M  END
>  <meeko>  (4) 
{"is_sidechain": [false], "intermolecular_energy": 2.731, "internal_energy": -0.839}

$$$$
EPH_relaxed_0001_pdb2pqr_Repair_244_r2_0001_out
     RDKit          3D

 82 86  0  0  0  0  0  0  0  0999 V2000
    3.6640   17.5850    0.6700 C   0  0  0  0  0  0  0  0  0  0  0  0
    2.7140   17.8780   -0.4950 C   0  0  2  0  0  0  0  0  0  0  0  0
    2.0400   19.2580   -0.3610 C   0  0  0  0  0  0  0  0  0  0  0  0
    1.0050   19.3310    0.7650 C   0  0  0  0  0  0  0  0  0  0  0  0
   -0.2520   20.0160    0.3200 C   0  0  2  0  0  0  0  0  0  0  0  0
   -1.2350   20.1890    1.3480 O   0  0  0  0  0  0  0  0  0  0  0  0
   -1.6020   19.3270    0.2590 C   0  0  0  0  0  0  0  0  0  0  0  0
   -1.7650   17.8910    0.6470 C   0  0  0  0  0  0  0  0  0  0  0  0
   -2.6580   19.9010   -0.6340 C   0  0  0  0  0  0  0  0  0  0  0  0
    1.6530   16.7870   -0.5870 C   0  0  1  0  0  0  0  0  0  0  0  0
    0.3450   17.2810   -1.2600 C   0  0  0  0  0  0  0  0  0  0  0  0
   -0.2210   16.0860   -2.0700 C   0  0  0  0  0  0  0  0  0  0  0  0
    0.5870   14.8630   -1.5760 C   0  0  1  0  0  0  0  0  0  0  0  0
   -0.0980   14.4430   -0.2380 C   0  0  0  0  0  0  0  0  0  0  0  0
    0.6980   13.6610   -2.5700 C   0  0  2  0  0  0  0  0  0  0  0  0
   -0.6390   12.9940   -2.9390 C   0  0  0  0  0  0  0  0  0  0  0  0
   -1.0510   11.8620   -2.0560 C   0  0  0  0  0  0  0  0  0  0  0  0
   -0.2510   11.2150   -1.1890 C   0  0  0  0  0  0  0  0  0  0  0  0
    1.2460   11.5430   -1.1030 C   0  0  1  0  0  0  0  0  0  0  0  0
    2.0650   10.2260   -1.0870 C   0  0  0  0  0  0  0  0  0  0  0  0
    1.6130    9.2690    0.0120 C   0  0  0  0  0  0  0  0  0  0  0  0
    0.1350    8.9200   -0.1430 C   0  0  2  0  0  0  0  0  0  0  0  0
   -0.0370    8.1590   -1.3420 O   0  0  0  0  0  0  0  0  0  0  0  0
   -0.7890   10.1700   -0.1810 C   0  0  0  0  0  0  0  0  0  0  0  0
   -0.8340   10.8270    1.2210 C   0  0  0  0  0  0  0  0  0  0  0  0
   -2.2330    9.6870   -0.4810 C   0  0  0  0  0  0  0  0  0  0  0  0
    1.7890   12.5880   -2.1700 C   0  0  1  0  0  0  0  0  0  0  0  0
    2.1880   11.8470   -3.4830 C   0  0  0  0  0  0  0  0  0  0  0  0
    3.1060   13.2500   -1.6170 C   0  0  0  0  0  0  0  0  0  0  0  0
    2.9360   14.5050   -0.7390 C   0  0  0  0  0  0  0  0  0  0  0  0
    2.0050   15.5200   -1.4080 C   0  0  2  0  0  0  0  0  0  0  0  0
    2.6790   15.9780   -2.7460 C   0  0  0  0  0  0  0  0  0  0  0  0
    3.1376   17.7474    1.6221 H   0  0  0  0  0  0  0  0  0  0  0  0
    4.0037   16.5403    0.6123 H   0  0  0  0  0  0  0  0  0  0  0  0
    4.5331   18.2568    0.6123 H   0  0  0  0  0  0  0  0  0  0  0  0
    3.3143   17.8918   -1.4166 H   0  0  0  0  0  0  0  0  0  0  0  0
    2.8204   20.0080   -0.1645 H   0  0  0  0  0  0  0  0  0  0  0  0
    1.5040   19.4467   -1.3029 H   0  0  0  0  0  0  0  0  0  0  0  0
    0.7584   18.3092    1.0892 H   0  0  0  0  0  0  0  0  0  0  0  0
    1.4384   19.9133    1.5915 H   0  0  0  0  0  0  0  0  0  0  0  0
    0.3055   20.6135   -0.4163 H   0  0  0  0  0  0  0  0  0  0  0  0
   -1.7746   17.8063    1.7437 H   0  0  0  0  0  0  0  0  0  0  0  0
   -2.7125   17.5068    0.2413 H   0  0  0  0  0  0  0  0  0  0  0  0
   -0.9277   17.3042    0.2413 H   0  0  0  0  0  0  0  0  0  0  0  0
   -3.4600   20.3369   -0.0202 H   0  0  0  0  0  0  0  0  0  0  0  0
   -2.2160   20.6830   -1.2689 H   0  0  0  0  0  0  0  0  0  0  0  0
   -3.0738   19.1048   -1.2689 H   0  0  0  0  0  0  0  0  0  0  0  0
    1.5585   16.5313    0.4787 H   0  0  0  0  0  0  0  0  0  0  0  0
   -0.3791   17.5964   -0.4943 H   0  0  0  0  0  0  0  0  0  0  0  0
    0.5390   18.1443   -1.9135 H   0  0  0  0  0  0  0  0  0  0  0  0
   -1.2934   15.9513   -1.8656 H   0  0  0  0  0  0  0  0  0  0  0  0
   -0.1285   16.2365   -3.1557 H   0  0  0  0  0  0  0  0  0  0  0  0
    0.4990   14.8091    0.6103 H   0  0  0  0  0  0  0  0  0  0  0  0
   -1.1074   14.8776   -0.1906 H   0  0  0  0  0  0  0  0  0  0  0  0
   -0.1684   13.3463   -0.1906 H   0  0  0  0  0  0  0  0  0  0  0  0
    1.0526   14.1478   -3.4905 H   0  0  0  0  0  0  0  0  0  0  0  0
   -1.4254   13.7620   -2.8966 H   0  0  0  0  0  0  0  0  0  0  0  0
   -0.4984   12.5632   -3.9413 H   0  0  0  0  0  0  0  0  0  0  0  0
   -2.0974   11.5290   -2.1200 H   0  0  0  0  0  0  0  0  0  0  0  0
    1.3858   12.0798   -0.1531 H   0  0  0  0  0  0  0  0  0  0  0  0
    1.9479    9.7262   -2.0599 H   0  0  0  0  0  0  0  0  0  0  0  0
    3.1150   10.4883   -0.8902 H   0  0  0  0  0  0  0  0  0  0  0  0
    2.2089    8.3463   -0.0465 H   0  0  0  0  0  0  0  0  0  0  0  0
    1.7579    9.7591    0.9861 H   0  0  0  0  0  0  0  0  0  0  0  0
   -0.1601    8.3377    0.7423 H   0  0  0  0  0  0  0  0  0  0  0  0
    0.7580    7.6110   -1.4590 H   0  0  0  0  0  0  0  0  0  0  0  0
   -0.7805   10.0460    1.9938 H   0  0  0  0  0  0  0  0  0  0  0  0
    0.0193   11.5121    1.3324 H   0  0  0  0  0  0  0  0  0  0  0  0
   -1.7728   11.3894    1.3324 H   0  0  0  0  0  0  0  0  0  0  0  0
   -2.7643    9.5093    0.4656 H   0  0  0  0  0  0  0  0  0  0  0  0
   -2.7640   10.4564   -1.0606 H   0  0  0  0  0  0  0  0  0  0  0  0
   -2.1942    8.7529   -1.0606 H   0  0  0  0  0  0  0  0  0  0  0  0
    2.6958   10.9040   -3.2320 H   0  0  0  0  0  0  0  0  0  0  0  0
    1.2840   11.6314   -4.0715 H   0  0  0  0  0  0  0  0  0  0  0  0
    2.8656   12.4830   -4.0715 H   0  0  0  0  0  0  0  0  0  0  0  0
    3.6327   12.4930   -1.0174 H   0  0  0  0  0  0  0  0  0  0  0  0
    3.6521   13.5934   -2.5080 H   0  0  0  0  0  0  0  0  0  0  0  0
    2.5094   14.2103    0.2311 H   0  0  0  0  0  0  0  0  0  0  0  0
    3.9222   14.9721   -0.6001 H   0  0  0  0  0  0  0  0  0  0  0  0
    3.5694   16.5830   -2.5197 H   0  0  0  0  0  0  0  0  0  0  0  0
    2.9752   15.0934   -3.3289 H   0  0  0  0  0  0  0  0  0  0  0  0
    1.9657   16.5791   -3.3289 H   0  0  0  0  0  0  0  0  0  0  0  0
  1  2  1  0
  2  3  1  0
  3  4  1  0
  4  5  1  0
  5  6  1  0
  6  7  1  0
  7  8  1  0
  7  9  1  0
  2 10  1  0
 10 11  1  0
 11 12  1  0
 12 13  1  0
 13 14  1  1
 13 15  1  0
 15 16  1  0
 16 17  1  0
 17 18  2  0
 18 19  1  0
 19 20  1  0
 20 21  1  0
 21 22  1  0
 22 23  1  0
 22 24  1  0
 24 25  1  0
 24 26  1  0
 19 27  1  0
 27 28  1  6
 27 29  1  0
 29 30  1  0
 30 31  1  0
 31 32  1  6
  7  5  1  0
 31 10  1  0
 31 13  1  0
 27 15  1  0
 24 18  1  0
  1 33  1  0
  1 34  1  0
  1 35  1  0
  2 36  1  6
  3 37  1  0
  3 38  1  0
  4 39  1  0
  4 40  1  0
  5 41  1  6
  8 42  1  0
  8 43  1  0
  8 44  1  0
  9 45  1  0
  9 46  1  0
  9 47  1  0
 10 48  1  1
 11 49  1  0
 11 50  1  0
 12 51  1  0
 12 52  1  0
 14 53  1  0
 14 54  1  0
 14 55  1  0
 15 56  1  6
 16 57  1  0
 16 58  1  0
 17 59  1  0
 19 60  1  1
 20 61  1  0
 20 62  1  0
 21 63  1  0
 21 64  1  0
 22 65  1  1
 23 66  1  0
 25 67  1  0
 25 68  1  0
 25 69  1  0
 26 70  1  0
 26 71  1  0
 26 72  1  0
 28 73  1  0
 28 74  1  0
 28 75  1  0
 29 76  1  0
 29 77  1  0
 30 78  1  0
 30 79  1  0
 32 80  1  0
 32 81  1  0
 32 82  1  0
M  END
>  <meeko>  (5) 
{"is_sidechain": [false], "intermolecular_energy": 2.731, "internal_energy": -0.839}

$$$$
EPH_relaxed_0001_pdb2pqr_Repair_244_r2_0001_out
     RDKit          3D

 82 86  0  0  0  0  0  0  0  0999 V2000
   -5.1570    5.8310   -1.7690 C   0  0  0  0  0  0  0  0  0  0  0  0
   -5.4600    7.3320   -1.7950 C   0  0  2  0  0  0  0  0  0  0  0  0
   -5.2400    7.9930   -0.4200 C   0  0  0  0  0  0  0  0  0  0  0  0
   -4.1910    9.1080   -0.4340 C   0  0  0  0  0  0  0  0  0  0  0  0
   -2.8400    8.5940   -0.8320 C   0  0  2  0  0  0  0  0  0  0  0  0
   -1.7910    8.8850    0.1010 O   0  0  0  0  0  0  0  0  0  0  0  0
   -1.6750    9.4960   -1.1940 C   0  0  0  0  0  0  0  0  0  0  0  0
   -1.8080   10.9870   -1.1780 C   0  0  0  0  0  0  0  0  0  0  0  0
   -0.5680    8.9330   -2.0300 C   0  0  0  0  0  0  0  0  0  0  0  0
   -6.8920    7.5650   -2.2620 C   0  0  1  0  0  0  0  0  0  0  0  0
   -7.1990    6.8740   -3.6170 C   0  0  0  0  0  0  0  0  0  0  0  0
   -8.6760    6.4060   -3.5570 C   0  0  0  0  0  0  0  0  0  0  0  0
   -9.2630    7.1270   -2.3200 C   0  0  1  0  0  0  0  0  0  0  0  0
   -9.6070    8.5650   -2.8210 C   0  0  0  0  0  0  0  0  0  0  0  0
  -10.4930    6.4430   -1.6410 C   0  0  2  0  0  0  0  0  0  0  0  0
  -11.7460    6.3240   -2.5270 C   0  0  0  0  0  0  0  0  0  0  0  0
  -12.6950    7.4730   -2.4450 C   0  0  0  0  0  0  0  0  0  0  0  0
  -12.6970    8.4200   -1.4890 C   0  0  0  0  0  0  0  0  0  0  0  0
  -11.7360    8.3370   -0.2960 C   0  0  1  0  0  0  0  0  0  0  0  0
  -12.5140    8.6160    1.0170 C   0  0  0  0  0  0  0  0  0  0  0  0
  -13.2780    9.9360    0.9740 C   0  0  0  0  0  0  0  0  0  0  0  0
  -14.2650    9.9570   -0.1900 C   0  0  2  0  0  0  0  0  0  0  0  0
  -15.2870    8.9860    0.0540 O   0  0  0  0  0  0  0  0  0  0  0  0
  -13.5970    9.6780   -1.5650 C   0  0  0  0  0  0  0  0  0  0  0  0
  -12.7130   10.8840   -1.9680 C   0  0  0  0  0  0  0  0  0  0  0  0
  -14.7210    9.5880   -2.6330 C   0  0  0  0  0  0  0  0  0  0  0  0
  -10.8490    7.0210   -0.2110 C   0  0  1  0  0  0  0  0  0  0  0  0
  -11.6300    5.9000    0.5410 C   0  0  0  0  0  0  0  0  0  0  0  0
   -9.5650    7.3210    0.6490 C   0  0  0  0  0  0  0  0  0  0  0  0
   -8.3420    7.8840   -0.1000 C   0  0  0  0  0  0  0  0  0  0  0  0
   -8.0310    7.0500   -1.3470 C   0  0  2  0  0  0  0  0  0  0  0  0
   -7.6600    5.6030   -0.8730 C   0  0  0  0  0  0  0  0  0  0  0  0
   -5.0879    5.4889   -0.7258 H   0  0  0  0  0  0  0  0  0  0  0  0
   -5.9631    5.2853   -2.2812 H   0  0  0  0  0  0  0  0  0  0  0  0
   -4.2023    5.6407   -2.2812 H   0  0  0  0  0  0  0  0  0  0  0  0
   -4.7579    7.7990   -2.5014 H   0  0  0  0  0  0  0  0  0  0  0  0
   -6.1961    8.4199   -0.0829 H   0  0  0  0  0  0  0  0  0  0  0  0
   -4.8680    7.2101    0.2572 H   0  0  0  0  0  0  0  0  0  0  0  0
   -4.5031    9.8820   -1.1506 H   0  0  0  0  0  0  0  0  0  0  0  0
   -4.1150    9.5198    0.5832 H   0  0  0  0  0  0  0  0  0  0  0  0
   -3.2924    7.7320   -1.3442 H   0  0  0  0  0  0  0  0  0  0  0  0
   -1.8396   11.3412   -0.1370 H   0  0  0  0  0  0  0  0  0  0  0  0
   -0.9465   11.4375   -1.6926 H   0  0  0  0  0  0  0  0  0  0  0  0
   -2.7357   11.2779   -1.6926 H   0  0  0  0  0  0  0  0  0  0  0  0
    0.2193    8.5326   -1.3744 H   0  0  0  0  0  0  0  0  0  0  0  0
   -0.9621    8.1258   -2.6649 H   0  0  0  0  0  0  0  0  0  0  0  0
   -0.1478    9.7269   -2.6649 H   0  0  0  0  0  0  0  0  0  0  0  0
   -6.8996    8.6646   -2.2901 H   0  0  0  0  0  0  0  0  0  0  0  0
   -7.0605    7.5852   -4.4447 H   0  0  0  0  0  0  0  0  0  0  0  0
   -6.5224    6.0239   -3.7886 H   0  0  0  0  0  0  0  0  0  0  0  0
   -9.2142    6.7005   -4.4700 H   0  0  0  0  0  0  0  0  0  0  0  0
   -8.7647    5.3120   -3.4838 H   0  0  0  0  0  0  0  0  0  0  0  0
   -9.7652    9.2264   -1.9564 H   0  0  0  0  0  0  0  0  0  0  0  0
   -8.7756    8.9499   -3.4298 H   0  0  0  0  0  0  0  0  0  0  0  0
  -10.5226    8.5319   -3.4298 H   0  0  0  0  0  0  0  0  0  0  0  0
  -10.1358    5.4137   -1.4895 H   0  0  0  0  0  0  0  0  0  0  0  0
  -11.4159    6.2295   -3.5720 H   0  0  0  0  0  0  0  0  0  0  0  0
  -12.2975    5.4464   -2.1587 H   0  0  0  0  0  0  0  0  0  0  0  0
  -13.4580    7.5525   -3.2334 H   0  0  0  0  0  0  0  0  0  0  0  0
  -10.9829    9.1223   -0.4575 H   0  0  0  0  0  0  0  0  0  0  0  0
  -13.2311    7.7985    1.1826 H   0  0  0  0  0  0  0  0  0  0  0  0
  -11.7796    8.6812    1.8333 H   0  0  0  0  0  0  0  0  0  0  0  0
  -13.8303   10.0632    1.9167 H   0  0  0  0  0  0  0  0  0  0  0  0
  -12.5565   10.7551    0.8375 H   0  0  0  0  0  0  0  0  0  0  0  0
  -14.6864   10.9715   -0.2462 H   0  0  0  0  0  0  0  0  0  0  0  0
  -15.4650    8.9800    1.0100 H   0  0  0  0  0  0  0  0  0  0  0  0
  -12.3442   11.3872   -1.0621 H   0  0  0  0  0  0  0  0  0  0  0  0
  -11.8591   10.5297   -2.5641 H   0  0  0  0  0  0  0  0  0  0  0  0
  -13.3079   11.5917   -2.5641 H   0  0  0  0  0  0  0  0  0  0  0  0
  -15.6973    9.5098   -2.1322 H   0  0  0  0  0  0  0  0  0  0  0  0
  -14.7026   10.4905   -3.2616 H   0  0  0  0  0  0  0  0  0  0  0  0
  -14.5592    8.6999   -3.2616 H   0  0  0  0  0  0  0  0  0  0  0  0
  -11.5278    6.0468    1.6264 H   0  0  0  0  0  0  0  0  0  0  0  0
  -12.6935    5.9447    0.2635 H   0  0  0  0  0  0  0  0  0  0  0  0
  -11.2196    4.9179    0.2635 H   0  0  0  0  0  0  0  0  0  0  0  0
   -9.8460    8.0506    1.4228 H   0  0  0  0  0  0  0  0  0  0  0  0
   -9.2413    6.3424    1.0331 H   0  0  0  0  0  0  0  0  0  0  0  0
   -8.5515    8.9204   -0.4033 H   0  0  0  0  0  0  0  0  0  0  0  0
   -7.4719    7.8479    0.5721 H   0  0  0  0  0  0  0  0  0  0  0  0
   -7.6511    5.5683    0.2264 H   0  0  0  0  0  0  0  0  0  0  0  0
   -8.4043    4.8895   -1.2564 H   0  0  0  0  0  0  0  0  0  0  0  0
   -6.6642    5.3356   -1.2564 H   0  0  0  0  0  0  0  0  0  0  0  0
  1  2  1  0
  2  3  1  0
  3  4  1  0
  4  5  1  0
  5  6  1  0
  6  7  1  0
  7  8  1  0
  7  9  1  0
  2 10  1  0
 10 11  1  0
 11 12  1  0
 12 13  1  0
 13 14  1  6
 13 15  1  0
 15 16  1  0
 16 17  1  0
 17 18  2  0
 18 19  1  0
 19 20  1  0
 20 21  1  0
 21 22  1  0
 22 23  1  0
 22 24  1  0
 24 25  1  0
 24 26  1  0
 19 27  1  0
 27 28  1  1
 27 29  1  0
 29 30  1  0
 30 31  1  0
 31 32  1  1
  7  5  1  0
 31 10  1  0
 31 13  1  0
 27 15  1  0
 24 18  1  0
  1 33  1  0
  1 34  1  0
  1 35  1  0
  2 36  1  6
  3 37  1  0
  3 38  1  0
  4 39  1  0
  4 40  1  0
  5 41  1  6
  8 42  1  0
  8 43  1  0
  8 44  1  0
  9 45  1  0
  9 46  1  0
  9 47  1  0
 10 48  1  6
 11 49  1  0
 11 50  1  0
 12 51  1  0
 12 52  1  0
 14 53  1  0
 14 54  1  0
 14 55  1  0
 15 56  1  1
 16 57  1  0
 16 58  1  0
 17 59  1  0
 19 60  1  6
 20 61  1  0
 20 62  1  0
 21 63  1  0
 21 64  1  0
 22 65  1  6
 23 66  1  0
 25 67  1  0
 25 68  1  0
 25 69  1  0
 26 70  1  0
 26 71  1  0
 26 72  1  0
 28 73  1  0
 28 74  1  0
 28 75  1  0
 29 76  1  0
 29 77  1  0
 30 78  1  0
 30 79  1  0
 32 80  1  0
 32 81  1  0
 32 82  1  0
M  END
>  <meeko>  (6) 
{"is_sidechain": [false], "intermolecular_energy": 2.731, "internal_energy": -0.839}

$$$$
EPH_relaxed_0001_pdb2pqr_Repair_244_r2_0001_out
     RDKit          3D

 82 86  0  0  0  0  0  0  0  0999 V2000
    0.4550    8.8090   -2.3770 C   0  0  0  0  0  0  0  0  0  0  0  0
    1.1960    9.9540   -3.0730 C   0  0  2  0  0  0  0  0  0  0  0  0
    2.6960    9.9760   -2.7180 C   0  0  0  0  0  0  0  0  0  0  0  0
    3.5790   10.5810   -3.8130 C   0  0  0  0  0  0  0  0  0  0  0  0
    4.9760   10.8240   -3.3270 C   0  0  2  0  0  0  0  0  0  0  0  0
    5.5720   12.0390   -3.8000 O   0  0  0  0  0  0  0  0  0  0  0  0
    6.1910   10.8180   -4.2360 C   0  0  0  0  0  0  0  0  0  0  0  0
    6.0650   10.5630   -5.7050 C   0  0  0  0  0  0  0  0  0  0  0  0
    7.5380   10.5740   -3.6290 C   0  0  0  0  0  0  0  0  0  0  0  0
    0.5550   11.2870   -2.7070 C   0  0  1  0  0  0  0  0  0  0  0  0
   -0.8260   11.1170   -2.0180 C   0  0  0  0  0  0  0  0  0  0  0  0
   -0.9470   12.2550   -0.9720 C   0  0  0  0  0  0  0  0  0  0  0  0
    0.2040   13.2280   -1.3190 C   0  0  1  0  0  0  0  0  0  0  0  0
   -0.3400   14.0870   -2.5030 C   0  0  0  0  0  0  0  0  0  0  0  0
    0.7280   14.1230   -0.1490 C   0  0  2  0  0  0  0  0  0  0  0  0
   -0.3060   15.0980    0.4400 C   0  0  0  0  0  0  0  0  0  0  0  0
   -0.3470   16.4470   -0.2000 C   0  0  0  0  0  0  0  0  0  0  0  0
    0.5990   16.9570   -1.0100 C   0  0  0  0  0  0  0  0  0  0  0  0
    1.9020   16.1940   -1.2790 C   0  0  1  0  0  0  0  0  0  0  0  0
    3.1070   17.1610   -1.1410 C   0  0  0  0  0  0  0  0  0  0  0  0
    2.9650   18.4000   -2.0190 C   0  0  0  0  0  0  0  0  0  0  0  0
    1.6880   19.1640   -1.6820 C   0  0  2  0  0  0  0  0  0  0  0  0
    1.8070   19.7010   -0.3610 O   0  0  0  0  0  0  0  0  0  0  0  0
    0.4070   18.2890   -1.7770 C   0  0  0  0  0  0  0  0  0  0  0  0
    0.1120   17.9570   -3.2610 C   0  0  0  0  0  0  0  0  0  0  0  0
   -0.7910   19.1400   -1.2770 C   0  0  0  0  0  0  0  0  0  0  0  0
    2.1010   14.8500   -0.4540 C   0  0  1  0  0  0  0  0  0  0  0  0
    2.7540   15.1650    0.9270 C   0  0  0  0  0  0  0  0  0  0  0  0
    3.1120   13.9200   -1.2220 C   0  0  0  0  0  0  0  0  0  0  0  0
    2.5180   12.9730   -2.2820 C   0  0  0  0  0  0  0  0  0  0  0  0
    1.3230   12.1980   -1.7180 C   0  0  2  0  0  0  0  0  0  0  0  0
    1.8440   11.3080   -0.5390 C   0  0  0  0  0  0  0  0  0  0  0  0
    0.5337    8.9306   -1.2866 H   0  0  0  0  0  0  0  0  0  0  0  0
   -0.6045    8.8249   -2.6722 H   0  0  0  0  0  0  0  0  0  0  0  0
    0.9035    7.8490   -2.6722 H   0  0  0  0  0  0  0  0  0  0  0  0
    1.1158    9.7883   -4.1575 H   0  0  0  0  0  0  0  0  0  0  0  0
    2.8269   10.5676   -1.7999 H   0  0  0  0  0  0  0  0  0  0  0  0
    3.0118    8.9299   -2.5919 H   0  0  0  0  0  0  0  0  0  0  0  0
    3.6139    9.8879   -4.6664 H   0  0  0  0  0  0  0  0  0  0  0  0
    3.1454   11.5479   -4.1082 H   0  0  0  0  0  0  0  0  0  0  0  0
    4.7609   10.3087   -2.3793 H   0  0  0  0  0  0  0  0  0  0  0  0
    5.5831    9.5877   -5.8678 H   0  0  0  0  0  0  0  0  0  0  0  0
    5.4544   11.3548   -6.1636 H   0  0  0  0  0  0  0  0  0  0  0  0
    7.0649   10.5591   -6.1636 H   0  0  0  0  0  0  0  0  0  0  0  0
    7.4542   10.5892   -2.5323 H   0  0  0  0  0  0  0  0  0  0  0  0
    7.9146    9.5930   -3.9544 H   0  0  0  0  0  0  0  0  0  0  0  0
    8.2347   11.3606   -3.9544 H   0  0  0  0  0  0  0  0  0  0  0  0
    0.5229   11.7549   -3.7020 H   0  0  0  0  0  0  0  0  0  0  0  0
   -1.6328   11.1983   -2.7613 H   0  0  0  0  0  0  0  0  0  0  0  0
   -0.9099   10.1301   -1.5395 H   0  0  0  0  0  0  0  0  0  0  0  0
   -1.9209   12.7592   -1.0577 H   0  0  0  0  0  0  0  0  0  0  0  0
   -0.8804   11.8814    0.0605 H   0  0  0  0  0  0  0  0  0  0  0  0
   -0.8888   14.9535   -2.1055 H   0  0  0  0  0  0  0  0  0  0  0  0
    0.5015   14.4370   -3.1190 H   0  0  0  0  0  0  0  0  0  0  0  0
   -1.0161   13.4759   -3.1190 H   0  0  0  0  0  0  0  0  0  0  0  0
    0.9266   13.3851    0.6422 H   0  0  0  0  0  0  0  0  0  0  0  0
   -1.3015   14.6418    0.3357 H   0  0  0  0  0  0  0  0  0  0  0  0
   -0.0058   15.2656    1.4849 H   0  0  0  0  0  0  0  0  0  0  0  0
   -1.2245   17.0768    0.0083 H   0  0  0  0  0  0  0  0  0  0  0  0
    1.8326   15.8300   -2.3147 H   0  0  0  0  0  0  0  0  0  0  0  0
    3.1851   17.4797   -0.0911 H   0  0  0  0  0  0  0  0  0  0  0  0
    4.0080   16.6212   -1.4679 H   0  0  0  0  0  0  0  0  0  0  0  0
    3.8315   19.0577   -1.8562 H   0  0  0  0  0  0  0  0  0  0  0  0
    2.9161   18.0812   -3.0707 H   0  0  0  0  0  0  0  0  0  0  0  0
    1.5764   19.9648   -2.4278 H   0  0  0  0  0  0  0  0  0  0  0  0
    2.0930   18.9800    0.2250 H   0  0  0  0  0  0  0  0  0  0  0  0
   -0.6178   17.1357   -3.3149 H   0  0  0  0  0  0  0  0  0  0  0  0
   -0.2993   18.8463   -3.7609 H   0  0  0  0  0  0  0  0  0  0  0  0
    1.0435   17.6532   -3.7609 H   0  0  0  0  0  0  0  0  0  0  0  0
   -0.8016   19.1476   -0.1771 H   0  0  0  0  0  0  0  0  0  0  0  0
   -0.6900   20.1700   -1.6498 H   0  0  0  0  0  0  0  0  0  0  0  0
   -1.7303   18.7055   -1.6498 H   0  0  0  0  0  0  0  0  0  0  0  0
    2.0805   14.8401    1.7337 H   0  0  0  0  0  0  0  0  0  0  0  0
    3.7113   14.6296    1.0106 H   0  0  0  0  0  0  0  0  0  0  0  0
    2.9308   16.2475    1.0106 H   0  0  0  0  0  0  0  0  0  0  0  0
    3.8425   14.5687   -1.7275 H   0  0  0  0  0  0  0  0  0  0  0  0
    3.5368   13.2593   -0.4519 H   0  0  0  0  0  0  0  0  0  0  0  0
    2.1865   13.5650   -3.1479 H   0  0  0  0  0  0  0  0  0  0  0  0
    3.2931   12.2523   -2.5817 H   0  0  0  0  0  0  0  0  0  0  0  0
    1.5716   11.7733    0.4198 H   0  0  0  0  0  0  0  0  0  0  0  0
    1.3880   10.3091   -0.6044 H   0  0  0  0  0  0  0  0  0  0  0  0
    2.9382   11.2166   -0.6044 H   0  0  0  0  0  0  0  0  0  0  0  0
  1  2  1  0
  2  3  1  0
  3  4  1  0
  4  5  1  0
  5  6  1  0
  6  7  1  0
  7  8  1  0
  7  9  1  0
  2 10  1  0
 10 11  1  0
 11 12  1  0
 12 13  1  0
 13 14  1  6
 13 15  1  0
 15 16  1  0
 16 17  1  0
 17 18  2  0
 18 19  1  0
 19 20  1  0
 20 21  1  0
 21 22  1  0
 22 23  1  0
 22 24  1  0
 24 25  1  0
 24 26  1  0
 19 27  1  0
 27 28  1  1
 27 29  1  0
 29 30  1  0
 30 31  1  0
 31 32  1  1
  7  5  1  0
 31 10  1  0
 31 13  1  0
 27 15  1  0
 24 18  1  0
  1 33  1  0
  1 34  1  0
  1 35  1  0
  2 36  1  6
  3 37  1  0
  3 38  1  0
  4 39  1  0
  4 40  1  0
  5 41  1  1
  8 42  1  0
  8 43  1  0
  8 44  1  0
  9 45  1  0
  9 46  1  0
  9 47  1  0
 10 48  1  6
 11 49  1  0
 11 50  1  0
 12 51  1  0
 12 52  1  0
 14 53  1  0
 14 54  1  0
 14 55  1  0
 15 56  1  1
 16 57  1  0
 16 58  1  0
 17 59  1  0
 19 60  1  6
 20 61  1  0
 20 62  1  0
 21 63  1  0
 21 64  1  0
 22 65  1  6
 23 66  1  0
 25 67  1  0
 25 68  1  0
 25 69  1  0
 26 70  1  0
 26 71  1  0
 26 72  1  0
 28 73  1  0
 28 74  1  0
 28 75  1  0
 29 76  1  0
 29 77  1  0
 30 78  1  0
 30 79  1  0
 32 80  1  0
 32 81  1  0
 32 82  1  0
M  END
>  <meeko>  (7) 
{"is_sidechain": [false], "intermolecular_energy": 2.731, "internal_energy": -0.839}

$$$$
EPH_relaxed_0001_pdb2pqr_Repair_244_r2_0001_out
     RDKit          3D

 82 86  0  0  0  0  0  0  0  0999 V2000
   -0.3820   10.5630   -4.0790 C   0  0  0  0  0  0  0  0  0  0  0  0
    0.8210   10.3660   -3.1530 C   0  0  2  0  0  0  0  0  0  0  0  0
    0.7610    9.0220   -2.4010 C   0  0  0  0  0  0  0  0  0  0  0  0
   -0.6370    8.6660   -1.8880 C   0  0  0  0  0  0  0  0  0  0  0  0
   -0.8100    9.0400   -0.4470 C   0  0  2  0  0  0  0  0  0  0  0  0
   -2.1710    9.0690    0.0050 O   0  0  0  0  0  0  0  0  0  0  0  0
   -1.4740   10.3260    0.0100 C   0  0  0  0  0  0  0  0  0  0  0  0
   -2.0060   11.3210   -0.9720 C   0  0  0  0  0  0  0  0  0  0  0  0
   -1.1690   10.8400    1.3830 C   0  0  0  0  0  0  0  0  0  0  0  0
    0.9050   11.5170   -2.1580 C   0  0  1  0  0  0  0  0  0  0  0  0
    1.9520   11.2650   -1.0400 C   0  0  0  0  0  0  0  0  0  0  0  0
    2.5790   12.6410   -0.6960 C   0  0  0  0  0  0  0  0  0  0  0  0
    1.6520   13.6740   -1.3790 C   0  0  1  0  0  0  0  0  0  0  0  0
    0.4460   13.8380   -0.4010 C   0  0  0  0  0  0  0  0  0  0  0  0
    2.2970   15.0520   -1.7350 C   0  0  2  0  0  0  0  0  0  0  0  0
    2.8000   15.8680   -0.5320 C   0  0  0  0  0  0  0  0  0  0  0  0
    1.8040   16.8060    0.0640 C   0  0  0  0  0  0  0  0  0  0  0  0
    0.6540   17.1980   -0.5160 C   0  0  0  0  0  0  0  0  0  0  0  0
    0.3050   16.7630   -1.9450 C   0  0  1  0  0  0  0  0  0  0  0  0
   -0.1940   17.9900   -2.7520 C   0  0  0  0  0  0  0  0  0  0  0  0
   -1.3470   18.7140   -2.0640 C   0  0  0  0  0  0  0  0  0  0  0  0
   -0.9420   19.1820   -0.6690 C   0  0  2  0  0  0  0  0  0  0  0  0
    0.0610   20.1940   -0.7950 O   0  0  0  0  0  0  0  0  0  0  0  0
   -0.4140   18.0320    0.2340 C   0  0  0  0  0  0  0  0  0  0  0  0
   -1.5840   17.0930    0.6180 C   0  0  0  0  0  0  0  0  0  0  0  0
    0.0920   18.6610    1.5600 C   0  0  0  0  0  0  0  0  0  0  0  0
    1.4270   15.9410   -2.7140 C   0  0  1  0  0  0  0  0  0  0  0  0
    2.4130   16.9210   -3.4200 C   0  0  0  0  0  0  0  0  0  0  0  0
    0.7520   15.0910   -3.8540 C   0  0  0  0  0  0  0  0  0  0  0  0
    0.2420   13.6900   -3.4670 C   0  0  0  0  0  0  0  0  0  0  0  0
    1.3160   12.9050   -2.7090 C   0  0  2  0  0  0  0  0  0  0  0  0
    2.5340   12.7050   -3.6750 C   0  0  0  0  0  0  0  0  0  0  0  0
   -1.2892   10.7116   -3.4749 H   0  0  0  0  0  0  0  0  0  0  0  0
   -0.2155   11.4458   -4.7137 H   0  0  0  0  0  0  0  0  0  0  0  0
   -0.5057    9.6732   -4.7137 H   0  0  0  0  0  0  0  0  0  0  0  0
    1.7236   10.3519   -3.7816 H   0  0  0  0  0  0  0  0  0  0  0  0
    1.0932    8.2265   -3.0843 H   0  0  0  0  0  0  0  0  0  0  0  0
    1.4124    9.1172   -1.5197 H   0  0  0  0  0  0  0  0  0  0  0  0
   -1.3850    9.2045   -2.4884 H   0  0  0  0  0  0  0  0  0  0  0  0
   -0.7688    7.5777   -1.9782 H   0  0  0  0  0  0  0  0  0  0  0  0
    0.1510    8.5727   -0.1859 H   0  0  0  0  0  0  0  0  0  0  0  0
   -2.4574   12.1653   -0.4304 H   0  0  0  0  0  0  0  0  0  0  0  0
   -1.1839   11.6882   -1.6039 H   0  0  0  0  0  0  0  0  0  0  0  0
   -2.7679   10.8412   -1.6039 H   0  0  0  0  0  0  0  0  0  0  0  0
   -1.5796   10.1481    2.1331 H   0  0  0  0  0  0  0  0  0  0  0  0
   -0.0793   10.9164    1.5122 H   0  0  0  0  0  0  0  0  0  0  0  0
   -1.6241   11.8331    1.5122 H   0  0  0  0  0  0  0  0  0  0  0  0
   -0.1405   11.5425   -1.8171 H   0  0  0  0  0  0  0  0  0  0  0  0
    1.4626   10.8390   -0.1517 H   0  0  0  0  0  0  0  0  0  0  0  0
    2.7212   10.5525   -1.3725 H   0  0  0  0  0  0  0  0  0  0  0  0
    2.5991   12.7973    0.3927 H   0  0  0  0  0  0  0  0  0  0  0  0
    3.6203   12.7228   -1.0409 H   0  0  0  0  0  0  0  0  0  0  0  0
    0.8065   13.7890    0.6371 H   0  0  0  0  0  0  0  0  0  0  0  0
   -0.0380   14.8102   -0.5755 H   0  0  0  0  0  0  0  0  0  0  0  0
   -0.2801   13.0303   -0.5755 H   0  0  0  0  0  0  0  0  0  0  0  0
    3.1985   14.7537   -2.2903 H   0  0  0  0  0  0  0  0  0  0  0  0
    3.1123   15.1615    0.2511 H   0  0  0  0  0  0  0  0  0  0  0  0
    3.6196   16.4958   -0.9117 H   0  0  0  0  0  0  0  0  0  0  0  0
    2.0284   17.2114    1.0616 H   0  0  0  0  0  0  0  0  0  0  0  0
   -0.5050   16.0249   -1.8489 H   0  0  0  0  0  0  0  0  0  0  0  0
    0.6416   18.6947   -2.8747 H   0  0  0  0  0  0  0  0  0  0  0  0
   -0.5613   17.6242   -3.7222 H   0  0  0  0  0  0  0  0  0  0  0  0
   -1.6348   19.5875   -2.6674 H   0  0  0  0  0  0  0  0  0  0  0  0
   -2.1926   18.0169   -1.9689 H   0  0  0  0  0  0  0  0  0  0  0  0
   -1.8443   19.5764   -0.1788 H   0  0  0  0  0  0  0  0  0  0  0  0
   -0.3810   21.0140   -1.0750 H   0  0  0  0  0  0  0  0  0  0  0  0
   -1.6605   17.0316    1.7136 H   0  0  0  0  0  0  0  0  0  0  0  0
   -2.5235   17.4906    0.2066 H   0  0  0  0  0  0  0  0  0  0  0  0
   -1.3992   16.0897    0.2066 H   0  0  0  0  0  0  0  0  0  0  0  0
   -0.3437   18.1193    2.4125 H   0  0  0  0  0  0  0  0  0  0  0  0
    1.1890   18.5917    1.6035 H   0  0  0  0  0  0  0  0  0  0  0  0
   -0.2107   19.7176    1.6035 H   0  0  0  0  0  0  0  0  0  0  0  0
    2.9779   17.4825   -2.6613 H   0  0  0  0  0  0  0  0  0  0  0  0
    3.1115   16.3489   -4.0484 H   0  0  0  0  0  0  0  0  0  0  0  0
    1.8452   17.6230   -4.0484 H   0  0  0  0  0  0  0  0  0  0  0  0
   -0.1067   15.6648   -4.2327 H   0  0  0  0  0  0  0  0  0  0  0  0
    1.5492   14.9135   -4.5908 H   0  0  0  0  0  0  0  0  0  0  0  0
   -0.6462   13.7948   -2.8266 H   0  0  0  0  0  0  0  0  0  0  0  0
   -0.0087   13.1419   -4.3871 H   0  0  0  0  0  0  0  0  0  0  0  0
    3.4497   12.5546   -3.0843 H   0  0  0  0  0  0  0  0  0  0  0  0
    2.3580   11.8237   -4.3093 H   0  0  0  0  0  0  0  0  0  0  0  0
    2.6491   13.5963   -4.3093 H   0  0  0  0  0  0  0  0  0  0  0  0
  1  2  1  0
  2  3  1  0
  3  4  1  0
  4  5  1  0
  5  6  1  0
  6  7  1  0
  7  8  1  0
  7  9  1  0
  2 10  1  0
 10 11  1  0
 11 12  1  0
 12 13  1  0
 13 14  1  1
 13 15  1  0
 15 16  1  0
 16 17  1  0
 17 18  2  0
 18 19  1  0
 19 20  1  0
 20 21  1  0
 21 22  1  0
 22 23  1  0
 22 24  1  0
 24 25  1  0
 24 26  1  0
 19 27  1  0
 27 28  1  6
 27 29  1  0
 29 30  1  0
 30 31  1  0
 31 32  1  6
  7  5  1  0
 31 10  1  0
 31 13  1  0
 27 15  1  0
 24 18  1  0
  1 33  1  0
  1 34  1  0
  1 35  1  0
  2 36  1  6
  3 37  1  0
  3 38  1  0
  4 39  1  0
  4 40  1  0
  5 41  1  1
  8 42  1  0
  8 43  1  0
  8 44  1  0
  9 45  1  0
  9 46  1  0
  9 47  1  0
 10 48  1  1
 11 49  1  0
 11 50  1  0
 12 51  1  0
 12 52  1  0
 14 53  1  0
 14 54  1  0
 14 55  1  0
 15 56  1  6
 16 57  1  0
 16 58  1  0
 17 59  1  0
 19 60  1  1
 20 61  1  0
 20 62  1  0
 21 63  1  0
 21 64  1  0
 22 65  1  1
 23 66  1  0
 25 67  1  0
 25 68  1  0
 25 69  1  0
 26 70  1  0
 26 71  1  0
 26 72  1  0
 28 73  1  0
 28 74  1  0
 28 75  1  0
 29 76  1  0
 29 77  1  0
 30 78  1  0
 30 79  1  0
 32 80  1  0
 32 81  1  0
 32 82  1  0
M  END
>  <meeko>  (8) 
{"is_sidechain": [false], "intermolecular_energy": 2.731, "internal_energy": -0.839}

$$$$
EPH_relaxed_0001_pdb2pqr_Repair_244_r2_0001_out
     RDKit          3D

 82 86  0  0  0  0  0  0  0  0999 V2000
    3.0830   18.7990   -2.6170 C   0  0  0  0  0  0  0  0  0  0  0  0
    1.9040   18.9310   -1.6490 C   0  0  2  0  0  0  0  0  0  0  0  0
    2.1890   19.9440   -0.5220 C   0  0  0  0  0  0  0  0  0  0  0  0
    2.4030   19.2960    0.8490 C   0  0  0  0  0  0  0  0  0  0  0  0
    3.8440   19.3270    1.2580 C   0  0  2  0  0  0  0  0  0  0  0  0
    4.2110   18.3430    2.2330 O   0  0  0  0  0  0  0  0  0  0  0  0
    4.3110   19.7150    2.6480 C   0  0  0  0  0  0  0  0  0  0  0  0
    3.3390   20.0990    3.7190 C   0  0  0  0  0  0  0  0  0  0  0  0
    5.7200   20.1900    2.8240 C   0  0  0  0  0  0  0  0  0  0  0  0
    1.5650   17.5700   -1.0520 C   0  0  1  0  0  0  0  0  0  0  0  0
    0.4540   17.6510    0.0280 C   0  0  0  0  0  0  0  0  0  0  0  0
   -0.3840   16.3520   -0.0950 C   0  0  0  0  0  0  0  0  0  0  0  0
    0.4600   15.4270   -1.0020 C   0  0  1  0  0  0  0  0  0  0  0  0
    1.5280   14.7990   -0.0530 C   0  0  0  0  0  0  0  0  0  0  0  0
   -0.3250   14.3310   -1.7940 C   0  0  2  0  0  0  0  0  0  0  0  0
   -1.0530   13.2930   -0.9220 C   0  0  0  0  0  0  0  0  0  0  0  0
   -0.2570   12.0770   -0.5810 C   0  0  0  0  0  0  0  0  0  0  0  0
    0.8820   11.6930   -1.1850 C   0  0  0  0  0  0  0  0  0  0  0  0
    1.4300   12.4610   -2.3950 C   0  0  1  0  0  0  0  0  0  0  0  0
    1.8380   11.4570   -3.5050 C   0  0  0  0  0  0  0  0  0  0  0  0
    2.8080   10.3910   -3.0020 C   0  0  0  0  0  0  0  0  0  0  0  0
    2.2040    9.6100   -1.8380 C   0  0  2  0  0  0  0  0  0  0  0  0
    1.0920    8.8500   -2.3200 O   0  0  0  0  0  0  0  0  0  0  0  0
    1.7460   10.5190   -0.6620 C   0  0  0  0  0  0  0  0  0  0  0  0
    2.9870   11.1090    0.0530 C   0  0  0  0  0  0  0  0  0  0  0  0
    1.0290    9.6220    0.3830 C   0  0  0  0  0  0  0  0  0  0  0  0
    0.5120   13.6370   -2.9430 C   0  0  1  0  0  0  0  0  0  0  0  0
   -0.5200   13.0730   -3.9670 C   0  0  0  0  0  0  0  0  0  0  0  0
    1.4070   14.6620   -3.7340 C   0  0  0  0  0  0  0  0  0  0  0  0
    2.0600   15.7920   -2.9150 C   0  0  0  0  0  0  0  0  0  0  0  0
    1.0290   16.4840   -2.0180 C   0  0  2  0  0  0  0  0  0  0  0  0
   -0.0460   17.1450   -2.9470 C   0  0  0  0  0  0  0  0  0  0  0  0
    4.0169   18.6944   -2.0453 H   0  0  0  0  0  0  0  0  0  0  0  0
    2.9396   17.9113   -3.2506 H   0  0  0  0  0  0  0  0  0  0  0  0
    3.1395   19.6964   -3.2506 H   0  0  0  0  0  0  0  0  0  0  0  0
    1.0455   19.3085   -2.2238 H   0  0  0  0  0  0  0  0  0  0  0  0
    3.0955   20.5092   -0.7842 H   0  0  0  0  0  0  0  0  0  0  0  0
    1.3019   20.5889   -0.4377 H   0  0  0  0  0  0  0  0  0  0  0  0
    1.8083   19.8404    1.5973 H   0  0  0  0  0  0  0  0  0  0  0  0
    2.0877   18.2442    0.7840 H   0  0  0  0  0  0  0  0  0  0  0  0
    4.1449   19.6686    0.2566 H   0  0  0  0  0  0  0  0  0  0  0  0
    3.7912   19.9204    4.7057 H   0  0  0  0  0  0  0  0  0  0  0  0
    3.0857   21.1648    3.6193 H   0  0  0  0  0  0  0  0  0  0  0  0
    2.4257   19.4941    3.6193 H   0  0  0  0  0  0  0  0  0  0  0  0
    5.9495   20.2674    3.8970 H   0  0  0  0  0  0  0  0  0  0  0  0
    6.4097   19.4747    2.3521 H   0  0  0  0  0  0  0  0  0  0  0  0
    5.8359   21.1769    2.3521 H   0  0  0  0  0  0  0  0  0  0  0  0
    2.5573   17.2816   -0.6749 H   0  0  0  0  0  0  0  0  0  0  0  0
    0.9035   17.7185    1.0297 H   0  0  0  0  0  0  0  0  0  0  0  0
   -0.1744   18.5420   -0.1174 H   0  0  0  0  0  0  0  0  0  0  0  0
   -0.5362   15.8932    0.8931 H   0  0  0  0  0  0  0  0  0  0  0  0
   -1.3860   16.5398   -0.5083 H   0  0  0  0  0  0  0  0  0  0  0  0
    1.2353   14.9711    0.9933 H   0  0  0  0  0  0  0  0  0  0  0  0
    1.5955   13.7174   -0.2417 H   0  0  0  0  0  0  0  0  0  0  0  0
    2.5060   15.2658   -0.2417 H   0  0  0  0  0  0  0  0  0  0  0  0
   -1.1163   14.9157   -2.2859 H   0  0  0  0  0  0  0  0  0  0  0  0
   -1.3444   13.7834    0.0185 H   0  0  0  0  0  0  0  0  0  0  0  0
   -1.9078   12.9404   -1.5178 H   0  0  0  0  0  0  0  0  0  0  0  0
   -0.6339   11.4409    0.2334 H   0  0  0  0  0  0  0  0  0  0  0  0
    2.3187   13.0005   -2.0355 H   0  0  0  0  0  0  0  0  0  0  0  0
    0.9318   10.9598   -3.8813 H   0  0  0  0  0  0  0  0  0  0  0  0
    2.3472   12.0245   -4.2979 H   0  0  0  0  0  0  0  0  0  0  0  0
    3.0356    9.6951   -3.8229 H   0  0  0  0  0  0  0  0  0  0  0  0
    3.7256   10.8875   -2.6533 H   0  0  0  0  0  0  0  0  0  0  0  0
    2.9905    8.9529   -1.4385 H   0  0  0  0  0  0  0  0  0  0  0  0
    0.3020    9.4150   -2.2610 H   0  0  0  0  0  0  0  0  0  0  0  0
    2.8484   11.0431    1.1422 H   0  0  0  0  0  0  0  0  0  0  0  0
    3.8826   10.5403   -0.2377 H   0  0  0  0  0  0  0  0  0  0  0  0
    3.1113   12.1626   -0.2377 H   0  0  0  0  0  0  0  0  0  0  0  0
    1.2955    9.9554    1.3968 H   0  0  0  0  0  0  0  0  0  0  0  0
   -0.0598    9.6983    0.2463 H   0  0  0  0  0  0  0  0  0  0  0  0
    1.3433    8.5768    0.2463 H   0  0  0  0  0  0  0  0  0  0  0  0
   -1.3603   12.6138   -3.4256 H   0  0  0  0  0  0  0  0  0  0  0  0
   -0.8946   13.8918   -4.5989 H   0  0  0  0  0  0  0  0  0  0  0  0
   -0.0331   12.3156   -4.5989 H   0  0  0  0  0  0  0  0  0  0  0  0
    2.2142   14.0936   -4.2191 H   0  0  0  0  0  0  0  0  0  0  0  0
    0.7193   15.1694   -4.4265 H   0  0  0  0  0  0  0  0  0  0  0  0
    2.8565   15.3671   -2.2865 H   0  0  0  0  0  0  0  0  0  0  0  0
    2.4750   16.5356   -3.6113 H   0  0  0  0  0  0  0  0  0  0  0  0
   -0.8213   17.6217   -2.3292 H   0  0  0  0  0  0  0  0  0  0  0  0
    0.4348   17.9037   -3.5820 H   0  0  0  0  0  0  0  0  0  0  0  0
   -0.5061   16.3736   -3.5820 H   0  0  0  0  0  0  0  0  0  0  0  0
  1  2  1  0
  2  3  1  0
  3  4  1  0
  4  5  1  0
  5  6  1  0
  6  7  1  0
  7  8  1  0
  7  9  1  0
  2 10  1  0
 10 11  1  0
 11 12  1  0
 12 13  1  0
 13 14  1  1
 13 15  1  0
 15 16  1  0
 16 17  1  0
 17 18  2  0
 18 19  1  0
 19 20  1  0
 20 21  1  0
 21 22  1  0
 22 23  1  0
 22 24  1  0
 24 25  1  0
 24 26  1  0
 19 27  1  0
 27 28  1  6
 27 29  1  0
 29 30  1  0
 30 31  1  0
 31 32  1  6
  7  5  1  0
 31 10  1  0
 31 13  1  0
 27 15  1  0
 24 18  1  0
  1 33  1  0
  1 34  1  0
  1 35  1  0
  2 36  1  6
  3 37  1  0
  3 38  1  0
  4 39  1  0
  4 40  1  0
  5 41  1  6
  8 42  1  0
  8 43  1  0
  8 44  1  0
  9 45  1  0
  9 46  1  0
  9 47  1  0
 10 48  1  1
 11 49  1  0
 11 50  1  0
 12 51  1  0
 12 52  1  0
 14 53  1  0
 14 54  1  0
 14 55  1  0
 15 56  1  6
 16 57  1  0
 16 58  1  0
 17 59  1  0
 19 60  1  1
 20 61  1  0
 20 62  1  0
 21 63  1  0
 21 64  1  0
 22 65  1  1
 23 66  1  0
 25 67  1  0
 25 68  1  0
 25 69  1  0
 26 70  1  0
 26 71  1  0
 26 72  1  0
 28 73  1  0
 28 74  1  0
 28 75  1  0
 29 76  1  0
 29 77  1  0
 30 78  1  0
 30 79  1  0
 32 80  1  0
 32 81  1  0
 32 82  1  0
M  END
>  <meeko>  (9) 
{"is_sidechain": [false], "intermolecular_energy": 2.731, "internal_energy": -0.839}

$$$$
EPH_relaxed_0001_pdb2pqr_Repair_244_r2_0001_out
     RDKit          3D

 82 86  0  0  0  0  0  0  0  0999 V2000
    0.1950    9.3460   -2.3100 C   0  0  0  0  0  0  0  0  0  0  0  0
    1.2670   10.3510   -2.7400 C   0  0  2  0  0  0  0  0  0  0  0  0
    2.6740    9.7200   -2.7730 C   0  0  0  0  0  0  0  0  0  0  0  0
    3.6050   10.3470   -3.8140 C   0  0  0  0  0  0  0  0  0  0  0  0
    4.9910   10.5360   -3.2760 C   0  0  2  0  0  0  0  0  0  0  0  0
    5.5610   11.8270   -3.5290 O   0  0  0  0  0  0  0  0  0  0  0  0
    6.2140   10.7120   -4.1560 C   0  0  0  0  0  0  0  0  0  0  0  0
    6.1080   10.7060   -5.6490 C   0  0  0  0  0  0  0  0  0  0  0  0
    7.5600   10.4000   -3.5810 C   0  0  0  0  0  0  0  0  0  0  0  0
    1.2570   11.5540   -1.8040 C   0  0  1  0  0  0  0  0  0  0  0  0
    2.3190   11.4430   -0.6780 C   0  0  0  0  0  0  0  0  0  0  0  0
    2.8340   12.8800   -0.4050 C   0  0  0  0  0  0  0  0  0  0  0  0
    1.8280   13.8000   -1.1370 C   0  0  1  0  0  0  0  0  0  0  0  0
    0.6120   13.9160   -0.1660 C   0  0  0  0  0  0  0  0  0  0  0  0
    2.3630   15.2050   -1.5650 C   0  0  2  0  0  0  0  0  0  0  0  0
    2.7970   16.1190   -0.4050 C   0  0  0  0  0  0  0  0  0  0  0  0
    1.7280   17.0030    0.1450 C   0  0  0  0  0  0  0  0  0  0  0  0
    0.5520   17.2730   -0.4510 C   0  0  0  0  0  0  0  0  0  0  0  0
    0.2410   16.7390   -1.8560 C   0  0  1  0  0  0  0  0  0  0  0  0
   -0.3530   17.8810   -2.7230 C   0  0  0  0  0  0  0  0  0  0  0  0
   -1.5610   18.5440   -2.0700 C   0  0  0  0  0  0  0  0  0  0  0  0
   -1.1970   19.1130   -0.7010 C   0  0  2  0  0  0  0  0  0  0  0  0
   -0.2770   20.1940   -0.8800 O   0  0  0  0  0  0  0  0  0  0  0  0
   -0.5800   18.0560    0.2580 C   0  0  0  0  0  0  0  0  0  0  0  0
   -1.6720   17.0470    0.6910 C   0  0  0  0  0  0  0  0  0  0  0  0
   -0.1290   18.7890    1.5500 C   0  0  0  0  0  0  0  0  0  0  0  0
    1.4260   15.9720   -2.5840 C   0  0  1  0  0  0  0  0  0  0  0  0
    2.3320   16.9900   -3.3420 C   0  0  0  0  0  0  0  0  0  0  0  0
    0.8230   15.0140   -3.6790 C   0  0  0  0  0  0  0  0  0  0  0  0
    0.4250   13.5980   -3.2200 C   0  0  0  0  0  0  0  0  0  0  0  0
    1.5580   12.9410   -2.4260 C   0  0  2  0  0  0  0  0  0  0  0  0
    2.7880   12.7900   -3.3830 C   0  0  0  0  0  0  0  0  0  0  0  0
    0.1508    9.3045   -1.2117 H   0  0  0  0  0  0  0  0  0  0  0  0
   -0.7823    9.6609   -2.7047 H   0  0  0  0  0  0  0  0  0  0  0  0
    0.4463    8.3505   -2.7047 H   0  0  0  0  0  0  0  0  0  0  0  0
    1.0263   10.6747   -3.7634 H   0  0  0  0  0  0  0  0  0  0  0  0
    3.1320    9.8403   -1.7801 H   0  0  0  0  0  0  0  0  0  0  0  0
    2.5462    8.6634   -3.0508 H   0  0  0  0  0  0  0  0  0  0  0  0
    3.6509    9.6884   -4.6938 H   0  0  0  0  0  0  0  0  0  0  0  0
    3.2035   11.3354   -4.0819 H   0  0  0  0  0  0  0  0  0  0  0  0
    4.7800    9.8626   -2.4322 H   0  0  0  0  0  0  0  0  0  0  0  0
    5.0492   10.6461   -5.9412 H   0  0  0  0  0  0  0  0  0  0  0  0
    6.5477   11.6305   -6.0515 H   0  0  0  0  0  0  0  0  0  0  0  0
    6.6492    9.8370   -6.0515 H   0  0  0  0  0  0  0  0  0  0  0  0
    7.5016   10.4135   -2.4826 H   0  0  0  0  0  0  0  0  0  0  0  0
    7.8811    9.4036   -3.9189 H   0  0  0  0  0  0  0  0  0  0  0  0
    8.2867   11.1535   -3.9189 H   0  0  0  0  0  0  0  0  0  0  0  0
    0.2123   11.5135   -1.4619 H   0  0  0  0  0  0  0  0  0  0  0  0
    1.8640   11.0245    0.2319 H   0  0  0  0  0  0  0  0  0  0  0  0
    3.1431   10.7784   -0.9766 H   0  0  0  0  0  0  0  0  0  0  0  0
    2.8400   13.0920    0.6744 H   0  0  0  0  0  0  0  0  0  0  0  0
    3.8661   13.0273   -0.7559 H   0  0  0  0  0  0  0  0  0  0  0  0
    0.9687   13.8820    0.8740 H   0  0  0  0  0  0  0  0  0  0  0  0
    0.0903   14.8680   -0.3438 H   0  0  0  0  0  0  0  0  0  0  0  0
   -0.0802   13.0798   -0.3438 H   0  0  0  0  0  0  0  0  0  0  0  0
    3.2856   14.9510   -2.1074 H   0  0  0  0  0  0  0  0  0  0  0  0
    3.1634   15.4802    0.4121 H   0  0  0  0  0  0  0  0  0  0  0  0
    3.5643   16.7905   -0.8177 H   0  0  0  0  0  0  0  0  0  0  0  0
    1.9174   17.4741    1.1208 H   0  0  0  0  0  0  0  0  0  0  0  0
   -0.5076   15.9443   -1.7216 H   0  0  0  0  0  0  0  0  0  0  0  0
    0.4240   18.6431   -2.8825 H   0  0  0  0  0  0  0  0  0  0  0  0
   -0.6880   17.4389   -3.6729 H   0  0  0  0  0  0  0  0  0  0  0  0
   -1.9168   19.3601   -2.7161 H   0  0  0  0  0  0  0  0  0  0  0  0
   -2.3482   17.7872   -1.9378 H   0  0  0  0  0  0  0  0  0  0  0  0
   -2.1290   19.4584   -0.2298 H   0  0  0  0  0  0  0  0  0  0  0  0
    0.0980   20.1160   -1.7740 H   0  0  0  0  0  0  0  0  0  0  0  0
   -1.7176   17.0049    1.7892 H   0  0  0  0  0  0  0  0  0  0  0  0
   -2.6466   17.3694    0.2957 H   0  0  0  0  0  0  0  0  0  0  0  0
   -1.4275   16.0500    0.2957 H   0  0  0  0  0  0  0  0  0  0  0  0
   -0.4748   18.2270    2.4301 H   0  0  0  0  0  0  0  0  0  0  0  0
    0.9686   18.8590    1.5677 H   0  0  0  0  0  0  0  0  0  0  0  0
   -0.5613   19.8003    1.5677 H   0  0  0  0  0  0  0  0  0  0  0  0
    2.8802   17.6059   -2.6139 H   0  0  0  0  0  0  0  0  0  0  0  0
    3.0484   16.4440   -3.9734 H   0  0  0  0  0  0  0  0  0  0  0  0
    1.7065   17.6382   -3.9734 H   0  0  0  0  0  0  0  0  0  0  0  0
   -0.0777   15.4977   -4.0849 H   0  0  0  0  0  0  0  0  0  0  0  0
    1.6333   14.8634   -4.4075 H   0  0  0  0  0  0  0  0  0  0  0  0
   -0.4695   13.6642   -2.5832 H   0  0  0  0  0  0  0  0  0  0  0  0
    0.2191   12.9854   -4.1101 H   0  0  0  0  0  0  0  0  0  0  0  0
    3.7052   12.6774   -2.7863 H   0  0  0  0  0  0  0  0  0  0  0  0
    2.6520   11.9018   -4.0175 H   0  0  0  0  0  0  0  0  0  0  0  0
    2.8709   13.6847   -4.0175 H   0  0  0  0  0  0  0  0  0  0  0  0
  1  2  1  0
  2  3  1  0
  3  4  1  0
  4  5  1  0
  5  6  1  0
  6  7  1  0
  7  8  1  0
  7  9  1  0
  2 10  1  0
 10 11  1  0
 11 12  1  0
 12 13  1  0
 13 14  1  1
 13 15  1  0
 15 16  1  0
 16 17  1  0
 17 18  2  0
 18 19  1  0
 19 20  1  0
 20 21  1  0
 21 22  1  0
 22 23  1  0
 22 24  1  0
 24 25  1  0
 24 26  1  0
 19 27  1  0
 27 28  1  6
 27 29  1  0
 29 30  1  0
 30 31  1  0
 31 32  1  6
  7  5  1  0
 31 10  1  0
 31 13  1  0
 27 15  1  0
 24 18  1  0
  1 33  1  0
  1 34  1  0
  1 35  1  0
  2 36  1  6
  3 37  1  0
  3 38  1  0
  4 39  1  0
  4 40  1  0
  5 41  1  1
  8 42  1  0
  8 43  1  0
  8 44  1  0
  9 45  1  0
  9 46  1  0
  9 47  1  0
 10 48  1  1
 11 49  1  0
 11 50  1  0
 12 51  1  0
 12 52  1  0
 14 53  1  0
 14 54  1  0
 14 55  1  0
 15 56  1  6
 16 57  1  0
 16 58  1  0
 17 59  1  0
 19 60  1  1
 20 61  1  0
 20 62  1  0
 21 63  1  0
 21 64  1  0
 22 65  1  1
 23 66  1  0
 25 67  1  0
 25 68  1  0
 25 69  1  0
 26 70  1  0
 26 71  1  0
 26 72  1  0
 28 73  1  0
 28 74  1  0
 28 75  1  0
 29 76  1  0
 29 77  1  0
 30 78  1  0
 30 79  1  0
 32 80  1  0
 32 81  1  0
 32 82  1  0
M  END
>  <meeko>  (10) 
{"is_sidechain": [false], "intermolecular_energy": 2.731, "internal_energy": -0.839}

$$$$
EPH_relaxed_0001_pdb2pqr_Repair_244_r2_0001_out
     RDKit          3D

 82 86  0  0  0  0  0  0  0  0999 V2000
    3.0900   18.4880   -1.1840 C   0  0  0  0  0  0  0  0  0  0  0  0
    2.7520   17.4110   -2.2190 C   0  0  2  0  0  0  0  0  0  0  0  0
    1.4010   17.6780   -2.9130 C   0  0  0  0  0  0  0  0  0  0  0  0
    0.8100   19.0550   -2.6010 C   0  0  0  0  0  0  0  0  0  0  0  0
   -0.5270   18.9460   -1.9320 C   0  0  2  0  0  0  0  0  0  0  0  0
   -1.2050   20.1940   -1.7420 O   0  0  0  0  0  0  0  0  0  0  0  0
   -0.8170   19.4950   -0.5480 C   0  0  0  0  0  0  0  0  0  0  0  0
    0.2380   20.1940    0.2510 C   0  0  0  0  0  0  0  0  0  0  0  0
   -1.9700   18.9270    0.2200 C   0  0  0  0  0  0  0  0  0  0  0  0
    2.7340   16.0390   -1.5550 C   0  0  1  0  0  0  0  0  0  0  0  0
    3.2220   16.0820   -0.0830 C   0  0  0  0  0  0  0  0  0  0  0  0
    2.3940   15.0260    0.6940 C   0  0  0  0  0  0  0  0  0  0  0  0
    1.7010   14.1880   -0.4060 C   0  0  1  0  0  0  0  0  0  0  0  0
    2.7870   13.1720   -0.8800 C   0  0  0  0  0  0  0  0  0  0  0  0
    0.3760   13.4670    0.0060 C   0  0  2  0  0  0  0  0  0  0  0  0
    0.5250   12.4150    1.1190 C   0  0  0  0  0  0  0  0  0  0  0  0
    0.8050   11.0260    0.6500 C   0  0  0  0  0  0  0  0  0  0  0  0
    0.6510   10.5800   -0.6110 C   0  0  0  0  0  0  0  0  0  0  0  0
    0.0580   11.4850   -1.6990 C   0  0  1  0  0  0  0  0  0  0  0  0
   -1.0140   10.6990   -2.4980 C   0  0  0  0  0  0  0  0  0  0  0  0
   -0.4800    9.3840   -3.0590 C   0  0  0  0  0  0  0  0  0  0  0  0
    0.0470    8.4890   -1.9410 C   0  0  2  0  0  0  0  0  0  0  0  0
   -1.0520    8.0810   -1.1210 O   0  0  0  0  0  0  0  0  0  0  0  0
    1.1280    9.1780   -1.0620 C   0  0  0  0  0  0  0  0  0  0  0  0
    2.4330    9.3470   -1.8790 C   0  0  0  0  0  0  0  0  0  0  0  0
    1.4710    8.2200    0.1110 C   0  0  0  0  0  0  0  0  0  0  0  0
   -0.4620   12.9050   -1.2130 C   0  0  1  0  0  0  0  0  0  0  0  0
   -1.9380   12.7920   -0.7230 C   0  0  0  0  0  0  0  0  0  0  0  0
   -0.4750   13.8950   -2.4370 C   0  0  0  0  0  0  0  0  0  0  0  0
    0.8270   14.6670   -2.7200 C   0  0  0  0  0  0  0  0  0  0  0  0
    1.3660   15.3200   -1.4440 C   0  0  2  0  0  0  0  0  0  0  0  0
    0.3050   16.3640   -0.9560 C   0  0  0  0  0  0  0  0  0  0  0  0
    2.9611   18.0771   -0.1718 H   0  0  0  0  0  0  0  0  0  0  0  0
    4.1328   18.8113   -1.3184 H   0  0  0  0  0  0  0  0  0  0  0  0
    2.4189   19.3492   -1.3184 H   0  0  0  0  0  0  0  0  0  0  0  0
    3.5329   17.4387   -2.9932 H   0  0  0  0  0  0  0  0  0  0  0  0
    1.5482   17.6017   -4.0004 H   0  0  0  0  0  0  0  0  0  0  0  0
    0.6906   16.9296   -2.5318 H   0  0  0  0  0  0  0  0  0  0  0  0
    1.4986   19.5959   -1.9353 H   0  0  0  0  0  0  0  0  0  0  0  0
    0.6753   19.5935   -3.5507 H   0  0  0  0  0  0  0  0  0  0  0  0
   -0.6992   17.9584   -2.3849 H   0  0  0  0  0  0  0  0  0  0  0  0
    0.0349   20.0594    1.3237 H   0  0  0  0  0  0  0  0  0  0  0  0
    1.2233   19.7694    0.0083 H   0  0  0  0  0  0  0  0  0  0  0  0
    0.2312   21.2669    0.0083 H   0  0  0  0  0  0  0  0  0  0  0  0
   -1.7752   19.0230    1.2983 H   0  0  0  0  0  0  0  0  0  0  0  0
   -2.8879   19.4761   -0.0371 H   0  0  0  0  0  0  0  0  0  0  0  0
   -2.0940   17.8647   -0.0371 H   0  0  0  0  0  0  0  0  0  0  0  0
    3.3915   15.4911   -2.2460 H   0  0  0  0  0  0  0  0  0  0  0  0
    4.2930   15.8362   -0.0317 H   0  0  0  0  0  0  0  0  0  0  0  0
    3.0875   17.0849    0.3485 H   0  0  0  0  0  0  0  0  0  0  0  0
    3.0508   14.3929    1.3087 H   0  0  0  0  0  0  0  0  0  0  0  0
    1.6723   15.4870    1.3844 H   0  0  0  0  0  0  0  0  0  0  0  0
    3.2721   12.7182   -0.0032 H   0  0  0  0  0  0  0  0  0  0  0  0
    2.3135   12.3850   -1.4854 H   0  0  0  0  0  0  0  0  0  0  0  0
    3.5407   13.6968   -1.4854 H   0  0  0  0  0  0  0  0  0  0  0  0
   -0.2117   14.2860    0.4462 H   0  0  0  0  0  0  0  0  0  0  0  0
    1.3532   12.7265    1.7725 H   0  0  0  0  0  0  0  0  0  0  0  0
   -0.4480   12.3732    1.6304 H   0  0  0  0  0  0  0  0  0  0  0  0
    1.1679   10.3057    1.3979 H   0  0  0  0  0  0  0  0  0  0  0  0
    0.8948   11.7532   -2.3607 H   0  0  0  0  0  0  0  0  0  0  0  0
   -1.8604   10.4795   -1.8306 H   0  0  0  0  0  0  0  0  0  0  0  0
   -1.3206   11.3246   -3.3493 H   0  0  0  0  0  0  0  0  0  0  0  0
   -1.2917    8.8614   -3.5863 H   0  0  0  0  0  0  0  0  0  0  0  0
    0.3464    9.6066   -3.7500 H   0  0  0  0  0  0  0  0  0  0  0  0
    0.5334    7.6228   -2.4134 H   0  0  0  0  0  0  0  0  0  0  0  0
   -1.7370    8.7680   -1.1830 H   0  0  0  0  0  0  0  0  0  0  0  0
    3.2844    9.4573   -1.1913 H   0  0  0  0  0  0  0  0  0  0  0  0
    2.5860    8.4612   -2.5129 H   0  0  0  0  0  0  0  0  0  0  0  0
    2.3553   10.2426   -2.5129 H   0  0  0  0  0  0  0  0  0  0  0  0
    1.2879    8.7313    1.0676 H   0  0  0  0  0  0  0  0  0  0  0  0
    0.8384    7.3223    0.0482 H   0  0  0  0  0  0  0  0  0  0  0  0
    2.5296    7.9278    0.0482 H   0  0  0  0  0  0  0  0  0  0  0  0
   -1.9601   12.7903    0.3768 H   0  0  0  0  0  0  0  0  0  0  0  0
   -2.5161   13.6485   -1.1001 H   0  0  0  0  0  0  0  0  0  0  0  0
   -2.3790   11.8575   -1.1001 H   0  0  0  0  0  0  0  0  0  0  0  0
   -0.7166   13.3092   -3.3362 H   0  0  0  0  0  0  0  0  0  0  0  0
   -1.2153   14.6655   -2.1758 H   0  0  0  0  0  0  0  0  0  0  0  0
    1.5809   13.9690   -3.1130 H   0  0  0  0  0  0  0  0  0  0  0  0
    0.6133   15.4572   -3.4548 H   0  0  0  0  0  0  0  0  0  0  0  0
    0.2869   16.3818    0.1437 H   0  0  0  0  0  0  0  0  0  0  0  0
    0.5714   17.3619   -1.3345 H   0  0  0  0  0  0  0  0  0  0  0  0
   -0.6884   16.0815   -1.3345 H   0  0  0  0  0  0  0  0  0  0  0  0
  1  2  1  0
  2  3  1  0
  3  4  1  0
  4  5  1  0
  5  6  1  0
  6  7  1  0
  7  8  1  0
  7  9  1  0
  2 10  1  0
 10 11  1  0
 11 12  1  0
 12 13  1  0
 13 14  1  6
 13 15  1  0
 15 16  1  0
 16 17  1  0
 17 18  2  0
 18 19  1  0
 19 20  1  0
 20 21  1  0
 21 22  1  0
 22 23  1  0
 22 24  1  0
 24 25  1  0
 24 26  1  0
 19 27  1  0
 27 28  1  1
 27 29  1  0
 29 30  1  0
 30 31  1  0
 31 32  1  1
  7  5  1  0
 31 10  1  0
 31 13  1  0
 27 15  1  0
 24 18  1  0
  1 33  1  0
  1 34  1  0
  1 35  1  0
  2 36  1  6
  3 37  1  0
  3 38  1  0
  4 39  1  0
  4 40  1  0
  5 41  1  1
  8 42  1  0
  8 43  1  0
  8 44  1  0
  9 45  1  0
  9 46  1  0
  9 47  1  0
 10 48  1  6
 11 49  1  0
 11 50  1  0
 12 51  1  0
 12 52  1  0
 14 53  1  0
 14 54  1  0
 14 55  1  0
 15 56  1  1
 16 57  1  0
 16 58  1  0
 17 59  1  0
 19 60  1  6
 20 61  1  0
 20 62  1  0
 21 63  1  0
 21 64  1  0
 22 65  1  6
 23 66  1  0
 25 67  1  0
 25 68  1  0
 25 69  1  0
 26 70  1  0
 26 71  1  0
 26 72  1  0
 28 73  1  0
 28 74  1  0
 28 75  1  0
 29 76  1  0
 29 77  1  0
 30 78  1  0
 30 79  1  0
 32 80  1  0
 32 81  1  0
 32 82  1  0
M  END
>  <meeko>  (11) 
{"is_sidechain": [false], "intermolecular_energy": 2.731, "internal_energy": -0.839}

$$$$
EPH_relaxed_0001_pdb2pqr_Repair_244_r2_0001_out
     RDKit          3D

 82 86  0  0  0  0  0  0  0  0999 V2000
   -0.9230   16.3920   -5.8770 C   0  0  0  0  0  0  0  0  0  0  0  0
    0.1790   15.6990   -6.6840 C   0  0  2  0  0  0  0  0  0  0  0  0
   -0.2160   15.5110   -8.1620 C   0  0  0  0  0  0  0  0  0  0  0  0
    0.4430   16.5190   -9.1080 C   0  0  0  0  0  0  0  0  0  0  0  0
    1.8470   16.1210   -9.4510 C   0  0  2  0  0  0  0  0  0  0  0  0
    2.3460   16.6800  -10.6730 O   0  0  0  0  0  0  0  0  0  0  0  0
    2.2020   15.2510  -10.6420 C   0  0  0  0  0  0  0  0  0  0  0  0
    1.1490   14.7250  -11.5670 C   0  0  0  0  0  0  0  0  0  0  0  0
    3.5060   14.5150  -10.6270 C   0  0  0  0  0  0  0  0  0  0  0  0
    0.5110   14.3500   -6.0570 C   0  0  1  0  0  0  0  0  0  0  0  0
    1.7370   13.6680   -6.7220 C   0  0  0  0  0  0  0  0  0  0  0  0
    2.4890   12.9080   -5.5990 C   0  0  0  0  0  0  0  0  0  0  0  0
    1.5040   12.8990   -4.4060 C   0  0  1  0  0  0  0  0  0  0  0  0
    0.5170   11.7290   -4.7100 C   0  0  0  0  0  0  0  0  0  0  0  0
    2.1410   12.7630   -2.9850 C   0  0  2  0  0  0  0  0  0  0  0  0
    2.9060   11.4520   -2.7360 C   0  0  0  0  0  0  0  0  0  0  0  0
    2.0920   10.3350   -2.1710 C   0  0  0  0  0  0  0  0  0  0  0  0
    0.8750   10.4610   -1.6100 C   0  0  0  0  0  0  0  0  0  0  0  0
    0.2370   11.8420   -1.4140 C   0  0  1  0  0  0  0  0  0  0  0  0
   -0.3410   11.9460    0.0220 C   0  0  0  0  0  0  0  0  0  0  0  0
   -1.3030   10.8080    0.3490 C   0  0  0  0  0  0  0  0  0  0  0  0
   -0.6150    9.4530    0.1990 C   0  0  2  0  0  0  0  0  0  0  0  0
    0.3970    9.3360    1.2030 O   0  0  0  0  0  0  0  0  0  0  0  0
    0.0140    9.2390   -1.2060 C   0  0  0  0  0  0  0  0  0  0  0  0
   -1.1080    9.0650   -2.2590 C   0  0  0  0  0  0  0  0  0  0  0  0
    0.7960    7.8970   -1.1790 C   0  0  0  0  0  0  0  0  0  0  0  0
    1.1480   13.0870   -1.7960 C   0  0  1  0  0  0  0  0  0  0  0  0
    2.0310   13.4950   -0.5770 C   0  0  0  0  0  0  0  0  0  0  0  0
    0.2240   14.3240   -2.1080 C   0  0  0  0  0  0  0  0  0  0  0  0
   -0.2760   14.4690   -3.5590 C   0  0  0  0  0  0  0  0  0  0  0  0
    0.8810   14.3360   -4.5530 C   0  0  2  0  0  0  0  0  0  0  0  0
    1.8800   15.5130   -4.2860 C   0  0  0  0  0  0  0  0  0  0  0  0
   -0.7242   16.2670   -4.8023 H   0  0  0  0  0  0  0  0  0  0  0  0
   -0.9400   17.4637   -6.1245 H   0  0  0  0  0  0  0  0  0  0  0  0
   -1.8962   15.9430   -6.1245 H   0  0  0  0  0  0  0  0  0  0  0  0
    1.0665   16.3484   -6.6598 H   0  0  0  0  0  0  0  0  0  0  0  0
    0.0783   14.4981   -8.4740 H   0  0  0  0  0  0  0  0  0  0  0  0
   -1.3023   15.6712   -8.2275 H   0  0  0  0  0  0  0  0  0  0  0  0
   -0.1474   16.5774  -10.0343 H   0  0  0  0  0  0  0  0  0  0  0  0
    0.4772   17.4943   -8.6004 H   0  0  0  0  0  0  0  0  0  0  0  0
    2.1150   16.0590   -8.3859 H   0  0  0  0  0  0  0  0  0  0  0  0
    0.3178   14.3098  -10.9781 H   0  0  0  0  0  0  0  0  0  0  0  0
    0.7764   15.5428  -12.2013 H   0  0  0  0  0  0  0  0  0  0  0  0
    1.5791   13.9359  -12.2013 H   0  0  0  0  0  0  0  0  0  0  0  0
    3.8162   14.3399   -9.5863 H   0  0  0  0  0  0  0  0  0  0  0  0
    3.3884   13.5501  -11.1418 H   0  0  0  0  0  0  0  0  0  0  0  0
    4.2713   15.1144  -11.1418 H   0  0  0  0  0  0  0  0  0  0  0  0
   -0.4477   13.8335   -6.2123 H   0  0  0  0  0  0  0  0  0  0  0  0
    1.4039   12.9638   -7.4986 H   0  0  0  0  0  0  0  0  0  0  0  0
    2.3904   14.4112   -7.2023 H   0  0  0  0  0  0  0  0  0  0  0  0
    2.7247   11.8813   -5.9156 H   0  0  0  0  0  0  0  0  0  0  0  0
    3.4481   13.3827   -5.3443 H   0  0  0  0  0  0  0  0  0  0  0  0
    0.1548   11.2997   -3.7642 H   0  0  0  0  0  0  0  0  0  0  0  0
   -0.3363   12.1104   -5.2900 H   0  0  0  0  0  0  0  0  0  0  0  0
    1.0367   10.9522   -5.2900 H   0  0  0  0  0  0  0  0  0  0  0  0
    2.9024   13.5569   -2.9908 H   0  0  0  0  0  0  0  0  0  0  0  0
    3.3247   11.1154   -3.6959 H   0  0  0  0  0  0  0  0  0  0  0  0
    3.6695   11.6847   -1.9791 H   0  0  0  0  0  0  0  0  0  0  0  0
    2.5232    9.3241   -2.2171 H   0  0  0  0  0  0  0  0  0  0  0  0
   -0.5775   11.9080   -2.1504 H   0  0  0  0  0  0  0  0  0  0  0  0
    0.4919   11.9210    0.7401 H   0  0  0  0  0  0  0  0  0  0  0  0
   -0.9041   12.8887    0.0879 H   0  0  0  0  0  0  0  0  0  0  0  0
   -1.6550   10.9205    1.3851 H   0  0  0  0  0  0  0  0  0  0  0  0
   -2.1501   10.8516   -0.3514 H   0  0  0  0  0  0  0  0  0  0  0  0
   -1.3845    8.6763    0.3198 H   0  0  0  0  0  0  0  0  0  0  0  0
    0.0970    8.6710    1.8460 H   0  0  0  0  0  0  0  0  0  0  0  0
   -2.0706    8.9157   -1.7479 H   0  0  0  0  0  0  0  0  0  0  0  0
   -1.1629    9.9654   -2.8885 H   0  0  0  0  0  0  0  0  0  0  0  0
   -0.8876    8.1903   -2.8885 H   0  0  0  0  0  0  0  0  0  0  0  0
    0.9715    7.5958   -0.1357 H   0  0  0  0  0  0  0  0  0  0  0  0
    0.2091    7.1203   -1.6911 H   0  0  0  0  0  0  0  0  0  0  0  0
    1.7611    8.0246   -1.6911 H   0  0  0  0  0  0  0  0  0  0  0  0
    1.5027   13.2509    0.3565 H   0  0  0  0  0  0  0  0  0  0  0  0
    2.9833   12.9456   -0.6138 H   0  0  0  0  0  0  0  0  0  0  0  0
    2.2298   14.5763   -0.6138 H   0  0  0  0  0  0  0  0  0  0  0  0
   -0.6598   14.2519   -1.4570 H   0  0  0  0  0  0  0  0  0  0  0  0
    0.8556   15.2071   -1.9313 H   0  0  0  0  0  0  0  0  0  0  0  0
   -1.0186   13.6838   -3.7639 H   0  0  0  0  0  0  0  0  0  0  0  0
   -0.7269   15.4654   -3.6768 H   0  0  0  0  0  0  0  0  0  0  0  0
    1.9994   15.6537   -3.2016 H   0  0  0  0  0  0  0  0  0  0  0  0
    2.8557   15.2746   -4.7345 H   0  0  0  0  0  0  0  0  0  0  0  0
    1.4862   16.4370   -4.7345 H   0  0  0  0  0  0  0  0  0  0  0  0
  1  2  1  0
  2  3  1  0
  3  4  1  0
  4  5  1  0
  5  6  1  0
  6  7  1  0
  7  8  1  0
  7  9  1  0
  2 10  1  0
 10 11  1  0
 11 12  1  0
 12 13  1  0
 13 14  1  6
 13 15  1  0
 15 16  1  0
 16 17  1  0
 17 18  2  0
 18 19  1  0
 19 20  1  0
 20 21  1  0
 21 22  1  0
 22 23  1  0
 22 24  1  0
 24 25  1  0
 24 26  1  0
 19 27  1  0
 27 28  1  1
 27 29  1  0
 29 30  1  0
 30 31  1  0
 31 32  1  6
  7  5  1  0
 31 10  1  0
 31 13  1  0
 27 15  1  0
 24 18  1  0
  1 33  1  0
  1 34  1  0
  1 35  1  0
  2 36  1  6
  3 37  1  0
  3 38  1  0
  4 39  1  0
  4 40  1  0
  5 41  1  1
  8 42  1  0
  8 43  1  0
  8 44  1  0
  9 45  1  0
  9 46  1  0
  9 47  1  0
 10 48  1  1
 11 49  1  0
 11 50  1  0
 12 51  1  0
 12 52  1  0
 14 53  1  0
 14 54  1  0
 14 55  1  0
 15 56  1  6
 16 57  1  0
 16 58  1  0
 17 59  1  0
 19 60  1  6
 20 61  1  0
 20 62  1  0
 21 63  1  0
 21 64  1  0
 22 65  1  1
 23 66  1  0
 25 67  1  0
 25 68  1  0
 25 69  1  0
 26 70  1  0
 26 71  1  0
 26 72  1  0
 28 73  1  0
 28 74  1  0
 28 75  1  0
 29 76  1  0
 29 77  1  0
 30 78  1  0
 30 79  1  0
 32 80  1  0
 32 81  1  0
 32 82  1  0
M  END
>  <meeko>  (12) 
{"is_sidechain": [false], "intermolecular_energy": 2.731, "internal_energy": -0.839}

$$$$
EPH_relaxed_0001_pdb2pqr_Repair_244_r2_0001_out
     RDKit          3D

 82 86  0  0  0  0  0  0  0  0999 V2000
   -3.7360    7.2020   -3.4650 C   0  0  0  0  0  0  0  0  0  0  0  0
   -3.7570    7.2800   -1.9360 C   0  0  2  0  0  0  0  0  0  0  0  0
   -5.1710    7.0570   -1.3630 C   0  0  0  0  0  0  0  0  0  0  0  0
   -6.2920    7.3060   -2.3760 C   0  0  0  0  0  0  0  0  0  0  0  0
   -7.6150    7.5080   -1.7000 C   0  0  2  0  0  0  0  0  0  0  0  0
   -8.1780    6.3240   -1.1210 O   0  0  0  0  0  0  0  0  0  0  0  0
   -8.9140    6.9100   -2.2080 C   0  0  0  0  0  0  0  0  0  0  0  0
   -8.9530    6.0640   -3.4420 C   0  0  0  0  0  0  0  0  0  0  0  0
  -10.2040    7.5430   -1.7900 C   0  0  0  0  0  0  0  0  0  0  0  0
   -3.2160    8.6290   -1.4770 C   0  0  1  0  0  0  0  0  0  0  0  0
   -3.8530    9.1070   -0.1450 C   0  0  0  0  0  0  0  0  0  0  0  0
   -2.7470    9.8650    0.6330 C   0  0  0  0  0  0  0  0  0  0  0  0
   -1.6220   10.0870   -0.4050 C   0  0  1  0  0  0  0  0  0  0  0  0
   -2.0750   11.3340   -1.2260 C   0  0  0  0  0  0  0  0  0  0  0  0
   -0.1790   10.2660    0.1680 C   0  0  2  0  0  0  0  0  0  0  0  0
    0.0170   11.4960    1.0720 C   0  0  0  0  0  0  0  0  0  0  0  0
    0.4440   12.7420    0.3690 C   0  0  0  0  0  0  0  0  0  0  0  0
    0.9360   12.8050   -0.8820 C   0  0  0  0  0  0  0  0  0  0  0  0
    1.1970   11.5280   -1.6910 C   0  0  1  0  0  0  0  0  0  0  0  0
    2.5980   11.6110   -2.3520 C   0  0  0  0  0  0  0  0  0  0  0  0
    2.7770   12.8770   -3.1850 C   0  0  0  0  0  0  0  0  0  0  0  0
    2.5670   14.1250   -2.3330 C   0  0  2  0  0  0  0  0  0  0  0  0
    3.6200   14.2080   -1.3680 O   0  0  0  0  0  0  0  0  0  0  0  0
    1.1920   14.1480   -1.6090 C   0  0  0  0  0  0  0  0  0  0  0  0
    0.0610   14.3630   -2.6450 C   0  0  0  0  0  0  0  0  0  0  0  0
    1.1650   15.3880   -0.6740 C   0  0  0  0  0  0  0  0  0  0  0  0
    0.9680   10.1580   -0.9180 C   0  0  1  0  0  0  0  0  0  0  0  0
    2.2660    9.7540   -0.1560 C   0  0  0  0  0  0  0  0  0  0  0  0
    0.6940    9.0160   -1.9660 C   0  0  0  0  0  0  0  0  0  0  0  0
   -0.7690    8.8100   -2.4030 C   0  0  0  0  0  0  0  0  0  0  0  0
   -1.6970    8.7250   -1.1870 C   0  0  2  0  0  0  0  0  0  0  0  0
   -1.2800    7.4660   -0.3530 C   0  0  0  0  0  0  0  0  0  0  0  0
   -3.4617    6.1833   -3.7764 H   0  0  0  0  0  0  0  0  0  0  0  0
   -4.7329    7.4498   -3.8585 H   0  0  0  0  0  0  0  0  0  0  0  0
   -2.9983    7.9168   -3.8585 H   0  0  0  0  0  0  0  0  0  0  0  0
   -3.1148    6.4726   -1.5544 H   0  0  0  0  0  0  0  0  0  0  0  0
   -5.2438    6.0167   -1.0132 H   0  0  0  0  0  0  0  0  0  0  0  0
   -5.3062    7.7841   -0.5487 H   0  0  0  0  0  0  0  0  0  0  0  0
   -6.0500    8.2050   -2.9618 H   0  0  0  0  0  0  0  0  0  0  0  0
   -6.3701    6.4217   -3.0255 H   0  0  0  0  0  0  0  0  0  0  0  0
   -7.3379    8.5327   -1.4114 H   0  0  0  0  0  0  0  0  0  0  0  0
   -9.0019    5.0026   -3.1575 H   0  0  0  0  0  0  0  0  0  0  0  0
   -9.8401    6.3252   -4.0377 H   0  0  0  0  0  0  0  0  0  0  0  0
   -8.0457    6.2425   -4.0377 H   0  0  0  0  0  0  0  0  0  0  0  0
  -10.2600    7.5705   -0.6918 H   0  0  0  0  0  0  0  0  0  0  0  0
  -10.2545    8.5682   -2.1855 H   0  0  0  0  0  0  0  0  0  0  0  0
  -11.0458    6.9556   -2.1855 H   0  0  0  0  0  0  0  0  0  0  0  0
   -3.4702    9.2380   -2.3570 H   0  0  0  0  0  0  0  0  0  0  0  0
   -4.7000    9.7783   -0.3496 H   0  0  0  0  0  0  0  0  0  0  0  0
   -4.2337    8.2558    0.4386 H   0  0  0  0  0  0  0  0  0  0  0  0
   -3.1256   10.8276    1.0071 H   0  0  0  0  0  0  0  0  0  0  0  0
   -2.3979    9.3052    1.5132 H   0  0  0  0  0  0  0  0  0  0  0  0
   -2.3678   12.1400   -0.5370 H   0  0  0  0  0  0  0  0  0  0  0  0
   -1.2441   11.6773   -1.8599 H   0  0  0  0  0  0  0  0  0  0  0  0
   -2.9325   11.0639   -1.8599 H   0  0  0  0  0  0  0  0  0  0  0  0
   -0.0776    9.3917    0.8277 H   0  0  0  0  0  0  0  0  0  0  0  0
   -0.9377   11.7014    1.5783 H   0  0  0  0  0  0  0  0  0  0  0  0
    0.8349   11.2399    1.7616 H   0  0  0  0  0  0  0  0  0  0  0  0
    0.3483   13.6890    0.9205 H   0  0  0  0  0  0  0  0  0  0  0  0
    0.4186   11.4962   -2.4676 H   0  0  0  0  0  0  0  0  0  0  0  0
    3.3625   11.5980   -1.5612 H   0  0  0  0  0  0  0  0  0  0  0  0
    2.7004   10.7490   -3.0277 H   0  0  0  0  0  0  0  0  0  0  0  0
    3.7949   12.8928   -3.6017 H   0  0  0  0  0  0  0  0  0  0  0  0
    2.0305   12.8740   -3.9929 H   0  0  0  0  0  0  0  0  0  0  0  0
    2.5799   14.9919   -3.0099 H   0  0  0  0  0  0  0  0  0  0  0  0
    4.2300   13.4690   -1.5350 H   0  0  0  0  0  0  0  0  0  0  0  0
   -0.8883   14.5435   -2.1194 H   0  0  0  0  0  0  0  0  0  0  0  0
    0.3017   15.2315   -3.2757 H   0  0  0  0  0  0  0  0  0  0  0  0
   -0.0337   13.4668   -3.2757 H   0  0  0  0  0  0  0  0  0  0  0  0
    1.1722   15.0566    0.3749 H   0  0  0  0  0  0  0  0  0  0  0  0
    2.0498   16.0123   -0.8673 H   0  0  0  0  0  0  0  0  0  0  0  0
    0.2539   15.9732   -0.8673 H   0  0  0  0  0  0  0  0  0  0  0  0
    2.0872    9.8096    0.9279 H   0  0  0  0  0  0  0  0  0  0  0  0
    2.5466    8.7260   -0.4290 H   0  0  0  0  0  0  0  0  0  0  0  0
    3.0804   10.4412   -0.4290 H   0  0  0  0  0  0  0  0  0  0  0  0
    1.2816    9.2438   -2.8676 H   0  0  0  0  0  0  0  0  0  0  0  0
    0.9757    8.0833   -1.4553 H   0  0  0  0  0  0  0  0  0  0  0  0
   -1.0788    9.6562   -3.0338 H   0  0  0  0  0  0  0  0  0  0  0  0
   -0.8382    7.8664   -2.9640 H   0  0  0  0  0  0  0  0  0  0  0  0
   -1.3560    7.6954    0.7201 H   0  0  0  0  0  0  0  0  0  0  0  0
   -1.9482    6.6269   -0.5968 H   0  0  0  0  0  0  0  0  0  0  0  0
   -0.2430    7.1917   -0.5968 H   0  0  0  0  0  0  0  0  0  0  0  0
  1  2  1  0
  2  3  1  0
  3  4  1  0
  4  5  1  0
  5  6  1  0
  6  7  1  0
  7  8  1  0
  7  9  1  0
  2 10  1  0
 10 11  1  0
 11 12  1  0
 12 13  1  0
 13 14  1  6
 13 15  1  0
 15 16  1  0
 16 17  1  0
 17 18  2  0
 18 19  1  0
 19 20  1  0
 20 21  1  0
 21 22  1  0
 22 23  1  0
 22 24  1  0
 24 25  1  0
 24 26  1  0
 19 27  1  0
 27 28  1  1
 27 29  1  0
 29 30  1  0
 30 31  1  0
 31 32  1  1
  7  5  1  0
 31 10  1  0
 31 13  1  0
 27 15  1  0
 24 18  1  0
  1 33  1  0
  1 34  1  0
  1 35  1  0
  2 36  1  1
  3 37  1  0
  3 38  1  0
  4 39  1  0
  4 40  1  0
  5 41  1  1
  8 42  1  0
  8 43  1  0
  8 44  1  0
  9 45  1  0
  9 46  1  0
  9 47  1  0
 10 48  1  6
 11 49  1  0
 11 50  1  0
 12 51  1  0
 12 52  1  0
 14 53  1  0
 14 54  1  0
 14 55  1  0
 15 56  1  1
 16 57  1  0
 16 58  1  0
 17 59  1  0
 19 60  1  6
 20 61  1  0
 20 62  1  0
 21 63  1  0
 21 64  1  0
 22 65  1  6
 23 66  1  0
 25 67  1  0
 25 68  1  0
 25 69  1  0
 26 70  1  0
 26 71  1  0
 26 72  1  0
 28 73  1  0
 28 74  1  0
 28 75  1  0
 29 76  1  0
 29 77  1  0
 30 78  1  0
 30 79  1  0
 32 80  1  0
 32 81  1  0
 32 82  1  0
M  END
>  <meeko>  (13) 
{"is_sidechain": [false], "intermolecular_energy": 2.731, "internal_energy": -0.839}

$$$$
EPH_relaxed_0001_pdb2pqr_Repair_244_r2_0001_out
     RDKit          3D

 82 86  0  0  0  0  0  0  0  0999 V2000
   -2.3190    7.8540   -2.2490 C   0  0  0  0  0  0  0  0  0  0  0  0
   -2.2080    8.4290   -0.8340 C   0  0  2  0  0  0  0  0  0  0  0  0
   -3.5550    8.3920   -0.0850 C   0  0  0  0  0  0  0  0  0  0  0  0
   -4.7740    8.4750   -1.0070 C   0  0  0  0  0  0  0  0  0  0  0  0
   -5.5110    7.1720   -1.0710 C   0  0  2  0  0  0  0  0  0  0  0  0
   -5.6200    6.6090   -2.3850 O   0  0  0  0  0  0  0  0  0  0  0  0
   -6.8530    7.0020   -1.7600 C   0  0  0  0  0  0  0  0  0  0  0  0
   -7.5370    8.1520   -2.4310 C   0  0  0  0  0  0  0  0  0  0  0  0
   -7.7210    5.8490   -1.3610 C   0  0  0  0  0  0  0  0  0  0  0  0
   -1.6840    9.8590   -0.8940 C   0  0  1  0  0  0  0  0  0  0  0  0
   -1.2560   10.3970    0.4980 C   0  0  0  0  0  0  0  0  0  0  0  0
   -0.0350   11.3230    0.2630 C   0  0  0  0  0  0  0  0  0  0  0  0
   -0.0070   11.5510   -1.2670 C   0  0  1  0  0  0  0  0  0  0  0  0
   -1.0650   12.6700   -1.5250 C   0  0  0  0  0  0  0  0  0  0  0  0
    1.3820   11.9160   -1.8860 C   0  0  2  0  0  0  0  0  0  0  0  0
    1.9920   13.2370   -1.3860 C   0  0  0  0  0  0  0  0  0  0  0  0
    1.6330   14.4470   -2.1840 C   0  0  0  0  0  0  0  0  0  0  0  0
    1.0900   14.4390   -3.4160 C   0  0  0  0  0  0  0  0  0  0  0  0
    0.8720   13.1220   -4.1720 C   0  0  1  0  0  0  0  0  0  0  0  0
    1.3770   13.2720   -5.6310 C   0  0  0  0  0  0  0  0  0  0  0  0
    0.7510   14.4660   -6.3460 C   0  0  0  0  0  0  0  0  0  0  0  0
    1.0380   15.7640   -5.5950 C   0  0  2  0  0  0  0  0  0  0  0  0
    2.4420   16.0320   -5.6610 O   0  0  0  0  0  0  0  0  0  0  0  0
    0.5820   15.7260   -4.1100 C   0  0  0  0  0  0  0  0  0  0  0  0
   -0.9650   15.7380   -4.0400 C   0  0  0  0  0  0  0  0  0  0  0  0
    1.0580   17.0400   -3.4320 C   0  0  0  0  0  0  0  0  0  0  0  0
    1.4350   11.8150   -3.4640 C   0  0  1  0  0  0  0  0  0  0  0  0
    2.9320   11.6050   -3.8460 C   0  0  0  0  0  0  0  0  0  0  0  0
    0.6570   10.5590   -4.0090 C   0  0  0  0  0  0  0  0  0  0  0  0
   -0.6460   10.1790   -3.2810 C   0  0  0  0  0  0  0  0  0  0  0  0
   -0.4310   10.1220   -1.7650 C   0  0  2  0  0  0  0  0  0  0  0  0
    0.6120    8.9900   -1.4730 C   0  0  0  0  0  0  0  0  0  0  0  0
   -2.5272    6.7754   -2.1912 H   0  0  0  0  0  0  0  0  0  0  0  0
   -3.1366    8.3570   -2.7861 H   0  0  0  0  0  0  0  0  0  0  0  0
   -1.3729    8.0165   -2.7861 H   0  0  0  0  0  0  0  0  0  0  0  0
   -1.5021    7.7977   -0.2744 H   0  0  0  0  0  0  0  0  0  0  0  0
   -3.6116    7.4509    0.4817 H   0  0  0  0  0  0  0  0  0  0  0  0
   -3.5845    9.2771    0.5675 H   0  0  0  0  0  0  0  0  0  0  0  0
   -5.4550    9.2514   -0.6283 H   0  0  0  0  0  0  0  0  0  0  0  0
   -4.4214    8.7193   -2.0199 H   0  0  0  0  0  0  0  0  0  0  0  0
   -5.1569    6.8960   -0.0668 H   0  0  0  0  0  0  0  0  0  0  0  0
   -7.9422    8.8333   -1.6683 H   0  0  0  0  0  0  0  0  0  0  0  0
   -6.8138    8.6930   -3.0589 H   0  0  0  0  0  0  0  0  0  0  0  0
   -8.3576    7.7748   -3.0589 H   0  0  0  0  0  0  0  0  0  0  0  0
   -7.7673    5.7874   -0.2637 H   0  0  0  0  0  0  0  0  0  0  0  0
   -8.7342    5.9964   -1.7631 H   0  0  0  0  0  0  0  0  0  0  0  0
   -7.2991    4.9161   -1.7631 H   0  0  0  0  0  0  0  0  0  0  0  0
   -2.5597   10.3575   -1.3353 H   0  0  0  0  0  0  0  0  0  0  0  0
   -2.0800   10.9650    0.9544 H   0  0  0  0  0  0  0  0  0  0  0  0
   -1.0008    9.5718    1.1792 H   0  0  0  0  0  0  0  0  0  0  0  0
   -0.1629   12.2770    0.7955 H   0  0  0  0  0  0  0  0  0  0  0  0
    0.9010   10.8820    0.6363 H   0  0  0  0  0  0  0  0  0  0  0  0
   -1.4312   13.0573   -0.5627 H   0  0  0  0  0  0  0  0  0  0  0  0
   -0.6020   13.4876   -2.0970 H   0  0  0  0  0  0  0  0  0  0  0  0
   -1.9072   12.2535   -2.0970 H   0  0  0  0  0  0  0  0  0  0  0  0
    2.0318   11.1199   -1.4937 H   0  0  0  0  0  0  0  0  0  0  0  0
    1.6525   13.3985   -0.3522 H   0  0  0  0  0  0  0  0  0  0  0  0
    3.0822   13.1234   -1.4787 H   0  0  0  0  0  0  0  0  0  0  0  0
    1.8288   15.4280   -1.7265 H   0  0  0  0  0  0  0  0  0  0  0  0
   -0.2139   12.9464   -4.1689 H   0  0  0  0  0  0  0  0  0  0  0  0
    2.4690   13.4034   -5.6146 H   0  0  0  0  0  0  0  0  0  0  0  0
    1.0872   12.3640   -6.1801 H   0  0  0  0  0  0  0  0  0  0  0  0
    1.1690   14.5374   -7.3610 H   0  0  0  0  0  0  0  0  0  0  0  0
   -0.3382   14.3183   -6.3880 H   0  0  0  0  0  0  0  0  0  0  0  0
    0.4574   16.5624   -6.0802 H   0  0  0  0  0  0  0  0  0  0  0  0
    2.7870   16.0210   -4.7520 H   0  0  0  0  0  0  0  0  0  0  0  0
   -1.2844   15.7405   -2.9874 H   0  0  0  0  0  0  0  0  0  0  0  0
   -1.3478   16.6391   -4.5414 H   0  0  0  0  0  0  0  0  0  0  0  0
   -1.3617   14.8429   -4.5414 H   0  0  0  0  0  0  0  0  0  0  0  0
    1.0162   16.9246   -2.3389 H   0  0  0  0  0  0  0  0  0  0  0  0
    2.0919   17.2571   -3.7385 H   0  0  0  0  0  0  0  0  0  0  0  0
    0.4030   17.8689   -3.7385 H   0  0  0  0  0  0  0  0  0  0  0  0
    3.5357   11.5203   -2.9303 H   0  0  0  0  0  0  0  0  0  0  0  0
    3.0335   10.6838   -4.4386 H   0  0  0  0  0  0  0  0  0  0  0  0
    3.2830   12.4627   -4.4386 H   0  0  0  0  0  0  0  0  0  0  0  0
    0.4050   10.7548   -5.0617 H   0  0  0  0  0  0  0  0  0  0  0  0
    1.3353    9.7082   -3.8476 H   0  0  0  0  0  0  0  0  0  0  0  0
   -1.4168   10.9305   -3.5071 H   0  0  0  0  0  0  0  0  0  0  0  0
   -0.9641    9.1847   -3.6276 H   0  0  0  0  0  0  0  0  0  0  0  0
    0.7251    8.8672   -0.3857 H   0  0  0  0  0  0  0  0  0  0  0  0
    0.2611    8.0454   -1.9141 H   0  0  0  0  0  0  0  0  0  0  0  0
    1.5821    9.2626   -1.9141 H   0  0  0  0  0  0  0  0  0  0  0  0
  1  2  1  0
  2  3  1  0
  3  4  1  0
  4  5  1  0
  5  6  1  0
  6  7  1  0
  7  8  1  0
  7  9  1  0
  2 10  1  0
 10 11  1  0
 11 12  1  0
 12 13  1  0
 13 14  1  1
 13 15  1  0
 15 16  1  0
 16 17  1  0
 17 18  2  0
 18 19  1  0
 19 20  1  0
 20 21  1  0
 21 22  1  0
 22 23  1  0
 22 24  1  0
 24 25  1  0
 24 26  1  0
 19 27  1  0
 27 28  1  1
 27 29  1  0
 29 30  1  0
 30 31  1  0
 31 32  1  6
  7  5  1  0
 31 10  1  0
 31 13  1  0
 27 15  1  0
 24 18  1  0
  1 33  1  0
  1 34  1  0
  1 35  1  0
  2 36  1  1
  3 37  1  0
  3 38  1  0
  4 39  1  0
  4 40  1  0
  5 41  1  1
  8 42  1  0
  8 43  1  0
  8 44  1  0
  9 45  1  0
  9 46  1  0
  9 47  1  0
 10 48  1  6
 11 49  1  0
 11 50  1  0
 12 51  1  0
 12 52  1  0
 14 53  1  0
 14 54  1  0
 14 55  1  0
 15 56  1  1
 16 57  1  0
 16 58  1  0
 17 59  1  0
 19 60  1  6
 20 61  1  0
 20 62  1  0
 21 63  1  0
 21 64  1  0
 22 65  1  6
 23 66  1  0
 25 67  1  0
 25 68  1  0
 25 69  1  0
 26 70  1  0
 26 71  1  0
 26 72  1  0
 28 73  1  0
 28 74  1  0
 28 75  1  0
 29 76  1  0
 29 77  1  0
 30 78  1  0
 30 79  1  0
 32 80  1  0
 32 81  1  0
 32 82  1  0
M  END
>  <meeko>  (14) 
{"is_sidechain": [false], "intermolecular_energy": 2.731, "internal_energy": -0.839}

$$$$
EPH_relaxed_0001_pdb2pqr_Repair_244_r2_0001_out
     RDKit          3D

 82 86  0  0  0  0  0  0  0  0999 V2000
    0.9330   14.9420   -2.6940 C   0  0  0  0  0  0  0  0  0  0  0  0
    1.1840   14.2600   -4.0410 C   0  0  2  0  0  0  0  0  0  0  0  0
    0.4630   14.9790   -5.1990 C   0  0  0  0  0  0  0  0  0  0  0  0
    0.9930   14.6000   -6.5850 C   0  0  0  0  0  0  0  0  0  0  0  0
    0.7730   15.6970   -7.5820 C   0  0  2  0  0  0  0  0  0  0  0  0
    0.4180   15.2490   -8.8960 O   0  0  0  0  0  0  0  0  0  0  0  0
    1.6760   15.9330   -8.7780 C   0  0  0  0  0  0  0  0  0  0  0  0
    2.8670   15.0660   -9.0400 C   0  0  0  0  0  0  0  0  0  0  0  0
    1.6860   17.2900   -9.4100 C   0  0  0  0  0  0  0  0  0  0  0  0
    0.7420   12.8030   -3.9770 C   0  0  1  0  0  0  0  0  0  0  0  0
    1.8770   11.8170   -4.3600 C   0  0  0  0  0  0  0  0  0  0  0  0
    1.6900   10.5550   -3.4790 C   0  0  0  0  0  0  0  0  0  0  0  0
    0.2790   10.7140   -2.8650 C   0  0  1  0  0  0  0  0  0  0  0  0
   -0.7010   10.2340   -3.9810 C   0  0  0  0  0  0  0  0  0  0  0  0
    0.0250    9.9690   -1.5140 C   0  0  2  0  0  0  0  0  0  0  0  0
    0.1380    8.4360   -1.5830 C   0  0  0  0  0  0  0  0  0  0  0  0
   -1.1320    7.7160   -1.8950 C   0  0  0  0  0  0  0  0  0  0  0  0
   -2.3680    8.2470   -1.8310 C   0  0  0  0  0  0  0  0  0  0  0  0
   -2.5850    9.6760   -1.3170 C   0  0  1  0  0  0  0  0  0  0  0  0
   -3.7590    9.6880   -0.3030 C   0  0  0  0  0  0  0  0  0  0  0  0
   -5.0330    9.0730   -0.8750 C   0  0  0  0  0  0  0  0  0  0  0  0
   -4.7910    7.6340   -1.3220 C   0  0  2  0  0  0  0  0  0  0  0  0
   -4.5220    6.8320   -0.1670 O   0  0  0  0  0  0  0  0  0  0  0  0
   -3.6230    7.4960   -2.3380 C   0  0  0  0  0  0  0  0  0  0  0  0
   -4.0410    8.1090   -3.6970 C   0  0  0  0  0  0  0  0  0  0  0  0
   -3.3930    5.9820   -2.5970 C   0  0  0  0  0  0  0  0  0  0  0  0
   -1.2930   10.4180   -0.7630 C   0  0  1  0  0  0  0  0  0  0  0  0
   -1.0870   10.0750    0.7440 C   0  0  0  0  0  0  0  0  0  0  0  0
   -1.5230   11.9740   -0.8370 C   0  0  0  0  0  0  0  0  0  0  0  0
   -1.1410   12.6710   -2.1570 C   0  0  0  0  0  0  0  0  0  0  0  0
    0.2660   12.2640   -2.6040 C   0  0  2  0  0  0  0  0  0  0  0  0
    1.2760   12.7540   -1.5110 C   0  0  0  0  0  0  0  0  0  0  0  0
    1.1881   14.2488   -1.8789 H   0  0  0  0  0  0  0  0  0  0  0  0
    1.5581   15.8439   -2.6175 H   0  0  0  0  0  0  0  0  0  0  0  0
   -0.1276   15.2235   -2.6175 H   0  0  0  0  0  0  0  0  0  0  0  0
    2.2643   14.3118   -4.2416 H   0  0  0  0  0  0  0  0  0  0  0  0
   -0.6060   14.7235   -5.1543 H   0  0  0  0  0  0  0  0  0  0  0  0
    0.6431   16.0564   -5.0699 H   0  0  0  0  0  0  0  0  0  0  0  0
    2.0715   14.3968   -6.5108 H   0  0  0  0  0  0  0  0  0  0  0  0
    0.4466   13.7095   -6.9291 H   0  0  0  0  0  0  0  0  0  0  0  0
    0.3993   16.3692   -6.7956 H   0  0  0  0  0  0  0  0  0  0  0  0
    3.3057   14.7467   -8.0831 H   0  0  0  0  0  0  0  0  0  0  0  0
    2.5569   14.1808   -9.6147 H   0  0  0  0  0  0  0  0  0  0  0  0
    3.6140   15.6331   -9.6147 H   0  0  0  0  0  0  0  0  0  0  0  0
    1.6917   18.0602   -8.6247 H   0  0  0  0  0  0  0  0  0  0  0  0
    2.5850   17.3968  -10.0349 H   0  0  0  0  0  0  0  0  0  0  0  0
    0.7887   17.4101  -10.0349 H   0  0  0  0  0  0  0  0  0  0  0  0
   -0.1018   12.8351   -4.6820 H   0  0  0  0  0  0  0  0  0  0  0  0
    1.8035   11.5500   -5.4246 H   0  0  0  0  0  0  0  0  0  0  0  0
    2.8658   12.2702   -4.1957 H   0  0  0  0  0  0  0  0  0  0  0  0
    1.7469    9.6424   -4.0906 H   0  0  0  0  0  0  0  0  0  0  0  0
    2.4716   10.4629   -2.7105 H   0  0  0  0  0  0  0  0  0  0  0  0
   -1.5971    9.7951   -3.5181 H   0  0  0  0  0  0  0  0  0  0  0  0
   -0.9933   11.0909   -4.6057 H   0  0  0  0  0  0  0  0  0  0  0  0
   -0.2032    9.4777   -4.6057 H   0  0  0  0  0  0  0  0  0  0  0  0
    0.8725   10.3039   -0.8979 H   0  0  0  0  0  0  0  0  0  0  0  0
    0.8718    8.1841   -2.3628 H   0  0  0  0  0  0  0  0  0  0  0  0
    0.4345    8.1073   -0.5760 H   0  0  0  0  0  0  0  0  0  0  0  0
   -1.0515    6.6631   -2.2031 H   0  0  0  0  0  0  0  0  0  0  0  0
   -2.8460   10.2799   -2.1986 H   0  0  0  0  0  0  0  0  0  0  0  0
   -3.4609    9.1163    0.5882 H   0  0  0  0  0  0  0  0  0  0  0  0
   -3.9766   10.7378   -0.0568 H   0  0  0  0  0  0  0  0  0  0  0  0
   -5.8159    9.0831   -0.1024 H   0  0  0  0  0  0  0  0  0  0  0  0
   -5.3466    9.6638   -1.7482 H   0  0  0  0  0  0  0  0  0  0  0  0
   -5.6989    7.2922   -1.8405 H   0  0  0  0  0  0  0  0  0  0  0  0
   -4.6920    5.9050   -0.4070 H   0  0  0  0  0  0  0  0  0  0  0  0
   -4.6528    9.0062   -3.5219 H   0  0  0  0  0  0  0  0  0  0  0  0
   -3.1415    8.3841   -4.2673 H   0  0  0  0  0  0  0  0  0  0  0  0
   -4.6256    7.3721   -4.2673 H   0  0  0  0  0  0  0  0  0  0  0  0
   -3.3127    5.4536   -1.6356 H   0  0  0  0  0  0  0  0  0  0  0  0
   -4.2396    5.5752   -3.1694 H   0  0  0  0  0  0  0  0  0  0  0  0
   -2.4637    5.8450   -3.1694 H   0  0  0  0  0  0  0  0  0  0  0  0
   -1.5546   10.8536    1.3645 H   0  0  0  0  0  0  0  0  0  0  0  0
   -1.5505    9.1023    0.9653 H   0  0  0  0  0  0  0  0  0  0  0  0
   -0.0106   10.0271    0.9653 H   0  0  0  0  0  0  0  0  0  0  0  0
   -2.5923   12.1611   -0.6593 H   0  0  0  0  0  0  0  0  0  0  0  0
   -0.8482   12.4009   -0.0805 H   0  0  0  0  0  0  0  0  0  0  0  0
   -1.8629   12.3860   -2.9365 H   0  0  0  0  0  0  0  0  0  0  0  0
   -1.1573   13.7591   -1.9968 H   0  0  0  0  0  0  0  0  0  0  0  0
    0.8614   12.5529   -0.5122 H   0  0  0  0  0  0  0  0  0  0  0  0
    2.2299   12.2185   -1.6267 H   0  0  0  0  0  0  0  0  0  0  0  0
    1.4458   13.8346   -1.6267 H   0  0  0  0  0  0  0  0  0  0  0  0
  1  2  1  0
  2  3  1  0
  3  4  1  0
  4  5  1  0
  5  6  1  0
  6  7  1  0
  7  8  1  0
  7  9  1  0
  2 10  1  0
 10 11  1  0
 11 12  1  0
 12 13  1  0
 13 14  1  6
 13 15  1  0
 15 16  1  0
 16 17  1  0
 17 18  2  0
 18 19  1  0
 19 20  1  0
 20 21  1  0
 21 22  1  0
 22 23  1  0
 22 24  1  0
 24 25  1  0
 24 26  1  0
 19 27  1  0
 27 28  1  1
 27 29  1  0
 29 30  1  0
 30 31  1  0
 31 32  1  1
  7  5  1  0
 31 10  1  0
 31 13  1  0
 27 15  1  0
 24 18  1  0
  1 33  1  0
  1 34  1  0
  1 35  1  0
  2 36  1  6
  3 37  1  0
  3 38  1  0
  4 39  1  0
  4 40  1  0
  5 41  1  1
  8 42  1  0
  8 43  1  0
  8 44  1  0
  9 45  1  0
  9 46  1  0
  9 47  1  0
 10 48  1  6
 11 49  1  0
 11 50  1  0
 12 51  1  0
 12 52  1  0
 14 53  1  0
 14 54  1  0
 14 55  1  0
 15 56  1  1
 16 57  1  0
 16 58  1  0
 17 59  1  0
 19 60  1  6
 20 61  1  0
 20 62  1  0
 21 63  1  0
 21 64  1  0
 22 65  1  6
 23 66  1  0
 25 67  1  0
 25 68  1  0
 25 69  1  0
 26 70  1  0
 26 71  1  0
 26 72  1  0
 28 73  1  0
 28 74  1  0
 28 75  1  0
 29 76  1  0
 29 77  1  0
 30 78  1  0
 30 79  1  0
 32 80  1  0
 32 81  1  0
 32 82  1  0
M  END
>  <meeko>  (15) 
{"is_sidechain": [false], "intermolecular_energy": 2.731, "internal_energy": -0.839}

$$$$
EPH_relaxed_0001_pdb2pqr_Repair_244_r2_0001_out
     RDKit          3D

 82 86  0  0  0  0  0  0  0  0999 V2000
    0.1640    9.8550   -4.5920 C   0  0  0  0  0  0  0  0  0  0  0  0
    1.2540   10.5730   -3.7910 C   0  0  2  0  0  0  0  0  0  0  0  0
    1.7070    9.7570   -2.5640 C   0  0  0  0  0  0  0  0  0  0  0  0
    0.7080    8.6760   -2.1410 C   0  0  0  0  0  0  0  0  0  0  0  0
   -0.1790    9.1460   -1.0280 C   0  0  2  0  0  0  0  0  0  0  0  0
   -0.7550    8.0970   -0.2390 O   0  0  0  0  0  0  0  0  0  0  0  0
   -1.6760    8.9020   -0.9920 C   0  0  0  0  0  0  0  0  0  0  0  0
   -2.3730    8.1630   -2.0910 C   0  0  0  0  0  0  0  0  0  0  0  0
   -2.5270    9.7980   -0.1460 C   0  0  0  0  0  0  0  0  0  0  0  0
    0.7550   11.9440   -3.3490 C   0  0  1  0  0  0  0  0  0  0  0  0
   -0.7580   11.9470   -3.0030 C   0  0  0  0  0  0  0  0  0  0  0  0
   -0.9470   12.9430   -1.8300 C   0  0  0  0  0  0  0  0  0  0  0  0
    0.3880   13.7210   -1.7600 C   0  0  1  0  0  0  0  0  0  0  0  0
    0.2750   14.8120   -2.8710 C   0  0  0  0  0  0  0  0  0  0  0  0
    0.7520   14.3440   -0.3730 C   0  0  2  0  0  0  0  0  0  0  0  0
   -0.2300   15.4110    0.1410 C   0  0  0  0  0  0  0  0  0  0  0  0
    0.0860   16.8140   -0.2580 C   0  0  0  0  0  0  0  0  0  0  0  0
    1.2630   17.2400   -0.7540 C   0  0  0  0  0  0  0  0  0  0  0  0
    2.4600   16.2880   -0.8690 C   0  0  1  0  0  0  0  0  0  0  0  0
    3.7320   16.9870   -0.3220 C   0  0  0  0  0  0  0  0  0  0  0  0
    3.9920   18.3340   -0.9890 C   0  0  0  0  0  0  0  0  0  0  0  0
    2.8030   19.2730   -0.8040 C   0  0  2  0  0  0  0  0  0  0  0  0
    2.6880   19.6040    0.5830 O   0  0  0  0  0  0  0  0  0  0  0  0
    1.4620   18.6710   -1.3110 C   0  0  0  0  0  0  0  0  0  0  0  0
    1.4780   18.5940   -2.8570 C   0  0  0  0  0  0  0  0  0  0  0  0
    0.3240   19.6590   -0.9370 C   0  0  0  0  0  0  0  0  0  0  0  0
    2.2520   14.8350   -0.2570 C   0  0  1  0  0  0  0  0  0  0  0  0
    2.6020   14.8420    1.2620 C   0  0  0  0  0  0  0  0  0  0  0  0
    3.2620   13.8400   -0.9410 C   0  0  0  0  0  0  0  0  0  0  0  0
    2.7970   13.1650   -2.2460 C   0  0  0  0  0  0  0  0  0  0  0  0
    1.3990   12.5610   -2.0820 C   0  0  2  0  0  0  0  0  0  0  0  0
    1.4860   11.4440   -0.9860 C   0  0  0  0  0  0  0  0  0  0  0  0
   -0.5500    9.3847   -3.8999 H   0  0  0  0  0  0  0  0  0  0  0  0
   -0.3645   10.5823   -5.2257 H   0  0  0  0  0  0  0  0  0  0  0  0
    0.6236    9.0822   -5.2257 H   0  0  0  0  0  0  0  0  0  0  0  0
    2.1269   10.6888   -4.4502 H   0  0  0  0  0  0  0  0  0  0  0  0
    2.6640    9.2707   -2.8043 H   0  0  0  0  0  0  0  0  0  0  0  0
    1.7937   10.4613   -1.7235 H   0  0  0  0  0  0  0  0  0  0  0  0
    0.0834    8.4096   -3.0064 H   0  0  0  0  0  0  0  0  0  0  0  0
    1.2764    7.8053   -1.7822 H   0  0  0  0  0  0  0  0  0  0  0  0
    0.4232   10.0577   -0.9007 H   0  0  0  0  0  0  0  0  0  0  0  0
   -3.0663    7.4279   -1.6563 H   0  0  0  0  0  0  0  0  0  0  0  0
   -2.9359    8.8752   -2.7122 H   0  0  0  0  0  0  0  0  0  0  0  0
   -1.6291    7.6427   -2.7122 H   0  0  0  0  0  0  0  0  0  0  0  0
   -2.3319    9.5926    0.9169 H   0  0  0  0  0  0  0  0  0  0  0  0
   -2.2859   10.8483   -0.3667 H   0  0  0  0  0  0  0  0  0  0  0  0
   -3.5883    9.6113   -0.3667 H   0  0  0  0  0  0  0  0  0  0  0  0
    1.0290   12.5339   -4.2361 H   0  0  0  0  0  0  0  0  0  0  0  0
   -1.3451   12.2724   -3.8744 H   0  0  0  0  0  0  0  0  0  0  0  0
   -1.1014   10.9397   -2.7248 H   0  0  0  0  0  0  0  0  0  0  0  0
   -1.7847   13.6266   -2.0322 H   0  0  0  0  0  0  0  0  0  0  0  0
   -1.1831   12.4336   -0.8841 H   0  0  0  0  0  0  0  0  0  0  0  0
    0.1724   15.8023   -2.4033 H   0  0  0  0  0  0  0  0  0  0  0  0
    1.1798   14.7937   -3.4962 H   0  0  0  0  0  0  0  0  0  0  0  0
   -0.6069   14.6087   -3.4962 H   0  0  0  0  0  0  0  0  0  0  0  0
    0.6433   13.4862    0.3069 H   0  0  0  0  0  0  0  0  0  0  0  0
   -1.2307   15.1654   -0.2440 H   0  0  0  0  0  0  0  0  0  0  0  0
   -0.1611   15.3841    1.2385 H   0  0  0  0  0  0  0  0  0  0  0  0
   -0.7100   17.5634   -0.1366 H   0  0  0  0  0  0  0  0  0  0  0  0
    2.5804   16.0797   -1.9424 H   0  0  0  0  0  0  0  0  0  0  0  0
    3.6091   17.1469    0.7594 H   0  0  0  0  0  0  0  0  0  0  0  0
    4.5909   16.3353   -0.5399 H   0  0  0  0  0  0  0  0  0  0  0  0
    4.8855   18.7918   -0.5395 H   0  0  0  0  0  0  0  0  0  0  0  0
    4.1447   18.1689   -2.0658 H   0  0  0  0  0  0  0  0  0  0  0  0
    2.9936   20.1699   -1.4116 H   0  0  0  0  0  0  0  0  0  0  0  0
    3.5650   19.4870    0.9870 H   0  0  0  0  0  0  0  0  0  0  0  0
    1.6925   17.5617   -3.1705 H   0  0  0  0  0  0  0  0  0  0  0  0
    0.4971   18.9001   -3.2495 H   0  0  0  0  0  0  0  0  0  0  0  0
    2.2558   19.2655   -3.2495 H   0  0  0  0  0  0  0  0  0  0  0  0
    0.2439   19.7285    0.1579 H   0  0  0  0  0  0  0  0  0  0  0  0
    0.5498   20.6524   -1.3520 H   0  0  0  0  0  0  0  0  0  0  0  0
   -0.6279   19.2960   -1.3520 H   0  0  0  0  0  0  0  0  0  0  0  0
    1.6739   14.8234    1.8522 H   0  0  0  0  0  0  0  0  0  0  0  0
    3.2075   13.9558    1.5029 H   0  0  0  0  0  0  0  0  0  0  0  0
    3.1716   15.7517    1.5029 H   0  0  0  0  0  0  0  0  0  0  0  0
    4.1810   14.4011   -1.1658 H   0  0  0  0  0  0  0  0  0  0  0  0
    3.3879   13.0179   -0.2210 H   0  0  0  0  0  0  0  0  0  0  0  0
    2.7730   13.9149   -3.0504 H   0  0  0  0  0  0  0  0  0  0  0  0
    3.5015   12.3574   -2.4938 H   0  0  0  0  0  0  0  0  0  0  0  0
    1.4500   11.9057    0.0118 H   0  0  0  0  0  0  0  0  0  0  0  0
    0.6391   10.7514   -1.1003 H   0  0  0  0  0  0  0  0  0  0  0  0
    2.4299   10.8909   -1.1003 H   0  0  0  0  0  0  0  0  0  0  0  0
  1  2  1  0
  2  3  1  0
  3  4  1  0
  4  5  1  0
  5  6  1  0
  6  7  1  0
  7  8  1  0
  7  9  1  0
  2 10  1  0
 10 11  1  0
 11 12  1  0
 12 13  1  0
 13 14  1  6
 13 15  1  0
 15 16  1  0
 16 17  1  0
 17 18  2  0
 18 19  1  0
 19 20  1  0
 20 21  1  0
 21 22  1  0
 22 23  1  0
 22 24  1  0
 24 25  1  0
 24 26  1  0
 19 27  1  0
 27 28  1  1
 27 29  1  0
 29 30  1  0
 30 31  1  0
 31 32  1  1
  7  5  1  0
 31 10  1  0
 31 13  1  0
 27 15  1  0
 24 18  1  0
  1 33  1  0
  1 34  1  0
  1 35  1  0
  2 36  1  6
  3 37  1  0
  3 38  1  0
  4 39  1  0
  4 40  1  0
  5 41  1  1
  8 42  1  0
  8 43  1  0
  8 44  1  0
  9 45  1  0
  9 46  1  0
  9 47  1  0
 10 48  1  6
 11 49  1  0
 11 50  1  0
 12 51  1  0
 12 52  1  0
 14 53  1  0
 14 54  1  0
 14 55  1  0
 15 56  1  1
 16 57  1  0
 16 58  1  0
 17 59  1  0
 19 60  1  6
 20 61  1  0
 20 62  1  0
 21 63  1  0
 21 64  1  0
 22 65  1  6
 23 66  1  0
 25 67  1  0
 25 68  1  0
 25 69  1  0
 26 70  1  0
 26 71  1  0
 26 72  1  0
 28 73  1  0
 28 74  1  0
 28 75  1  0
 29 76  1  0
 29 77  1  0
 30 78  1  0
 30 79  1  0
 32 80  1  0
 32 81  1  0
 32 82  1  0
M  END
>  <meeko>  (16) 
{"is_sidechain": [false], "intermolecular_energy": 2.731, "internal_energy": -0.839}

$$$$
EPH_relaxed_0001_pdb2pqr_Repair_244_r2_0001_out
     RDKit          3D

 82 86  0  0  0  0  0  0  0  0999 V2000
   -2.1320    9.6990   -0.4960 C   0  0  0  0  0  0  0  0  0  0  0  0
   -1.2340   10.3920   -1.5240 C   0  0  2  0  0  0  0  0  0  0  0  0
   -0.1560    9.4440   -2.0870 C   0  0  0  0  0  0  0  0  0  0  0  0
    1.2770    9.8890   -1.7800 C   0  0  0  0  0  0  0  0  0  0  0  0
    2.0840   10.0620   -3.0310 C   0  0  2  0  0  0  0  0  0  0  0  0
    3.3000    9.3050   -3.0680 O   0  0  0  0  0  0  0  0  0  0  0  0
    3.4430   10.7340   -3.0630 C   0  0  0  0  0  0  0  0  0  0  0  0
    4.0740   11.2790   -1.8200 C   0  0  0  0  0  0  0  0  0  0  0  0
    3.9330   11.2950   -4.3620 C   0  0  0  0  0  0  0  0  0  0  0  0
   -0.5750   11.6160   -0.8980 C   0  0  1  0  0  0  0  0  0  0  0  0
    0.6310   11.2480    0.0070 C   0  0  0  0  0  0  0  0  0  0  0  0
    1.6720   12.3850   -0.1510 C   0  0  0  0  0  0  0  0  0  0  0  0
    0.9050   13.5190   -0.8700 C   0  0  1  0  0  0  0  0  0  0  0  0
    0.1040   14.2400    0.2590 C   0  0  0  0  0  0  0  0  0  0  0  0
    1.7730   14.5250   -1.6940 C   0  0  2  0  0  0  0  0  0  0  0  0
    2.7860   15.3400   -0.8720 C   0  0  0  0  0  0  0  0  0  0  0  0
    2.2800   16.6420   -0.3450 C   0  0  0  0  0  0  0  0  0  0  0  0
    1.1640   17.2710   -0.7570 C   0  0  0  0  0  0  0  0  0  0  0  0
    0.3330   16.7200   -1.9230 C   0  0  1  0  0  0  0  0  0  0  0  0
   -0.0200   17.8730   -2.8980 C   0  0  0  0  0  0  0  0  0  0  0  0
   -0.7030   19.0440   -2.1980 C   0  0  0  0  0  0  0  0  0  0  0  0
    0.1790   19.6020   -1.0840 C   0  0  2  0  0  0  0  0  0  0  0  0
    1.3420   20.1940   -1.6700 O   0  0  0  0  0  0  0  0  0  0  0  0
    0.6070   18.5280   -0.0440 C   0  0  0  0  0  0  0  0  0  0  0  0
   -0.6200   18.1040    0.8010 C   0  0  0  0  0  0  0  0  0  0  0  0
    1.6050   19.1900    0.9430 C   0  0  0  0  0  0  0  0  0  0  0  0
    0.9390   15.4540   -2.6680 C   0  0  1  0  0  0  0  0  0  0  0  0
    1.9190   15.9150   -3.7900 C   0  0  0  0  0  0  0  0  0  0  0  0
   -0.2250   14.6740   -3.3870 C   0  0  0  0  0  0  0  0  0  0  0  0
   -0.9650   13.6090   -2.5560 C   0  0  0  0  0  0  0  0  0  0  0  0
    0.0260   12.6710   -1.8590 C   0  0  2  0  0  0  0  0  0  0  0  0
    0.8310   11.9160   -2.9710 C   0  0  0  0  0  0  0  0  0  0  0  0
   -1.7957    9.9585    0.5187 H   0  0  0  0  0  0  0  0  0  0  0  0
   -3.1715   10.0313   -0.6340 H   0  0  0  0  0  0  0  0  0  0  0  0
   -2.0741    8.6092   -0.6340 H   0  0  0  0  0  0  0  0  0  0  0  0
   -1.8724   10.7022   -2.3644 H   0  0  0  0  0  0  0  0  0  0  0  0
   -0.3102    8.4455   -1.6519 H   0  0  0  0  0  0  0  0  0  0  0  0
   -0.2657    9.4467   -3.1815 H   0  0  0  0  0  0  0  0  0  0  0  0
    1.2449   10.8474   -1.2412 H   0  0  0  0  0  0  0  0  0  0  0  0
    1.7547    9.1089   -1.1690 H   0  0  0  0  0  0  0  0  0  0  0  0
    1.1718   10.2137   -3.6267 H   0  0  0  0  0  0  0  0  0  0  0  0
    3.5768   10.8495   -0.9378 H   0  0  0  0  0  0  0  0  0  0  0  0
    5.1416   11.0143   -1.8044 H   0  0  0  0  0  0  0  0  0  0  0  0
    3.9674   12.3737   -1.8044 H   0  0  0  0  0  0  0  0  0  0  0  0
    4.6448   12.1100   -4.1642 H   0  0  0  0  0  0  0  0  0  0  0  0
    4.4335   10.5027   -4.9380 H   0  0  0  0  0  0  0  0  0  0  0  0
    3.0806   11.6844   -4.9380 H   0  0  0  0  0  0  0  0  0  0  0  0
   -1.4410   12.0398   -0.3685 H   0  0  0  0  0  0  0  0  0  0  0  0
    0.3084   11.1729    1.0559 H   0  0  0  0  0  0  0  0  0  0  0  0
    1.0597   10.2771   -0.2819 H   0  0  0  0  0  0  0  0  0  0  0  0
    2.0312   12.7220    0.8325 H   0  0  0  0  0  0  0  0  0  0  0  0
    2.5610   12.0616   -0.7123 H   0  0  0  0  0  0  0  0  0  0  0  0
    0.4734   13.9075    1.2403 H   0  0  0  0  0  0  0  0  0  0  0  0
    0.2379   15.3279    0.1662 H   0  0  0  0  0  0  0  0  0  0  0  0
   -0.9638   13.9928    0.1662 H   0  0  0  0  0  0  0  0  0  0  0  0
    2.3730   13.8544   -2.3266 H   0  0  0  0  0  0  0  0  0  0  0  0
    3.1008   14.7260   -0.0153 H   0  0  0  0  0  0  0  0  0  0  0  0
    3.6064   15.5891   -1.5611 H   0  0  0  0  0  0  0  0  0  0  0  0
    2.8690   17.1280    0.4467 H   0  0  0  0  0  0  0  0  0  0  0  0
   -0.5871   16.3151   -1.4763 H   0  0  0  0  0  0  0  0  0  0  0  0
    0.9072   18.2347   -3.3665 H   0  0  0  0  0  0  0  0  0  0  0  0
   -0.7229   17.4749   -3.6446 H   0  0  0  0  0  0  0  0  0  0  0  0
   -0.8999   19.8380   -2.9334 H   0  0  0  0  0  0  0  0  0  0  0  0
   -1.6451   18.6880   -1.7555 H   0  0  0  0  0  0  0  0  0  0  0  0
   -0.4146   20.3490   -0.5367 H   0  0  0  0  0  0  0  0  0  0  0  0
    1.1700   20.3020   -2.6210 H   0  0  0  0  0  0  0  0  0  0  0  0
   -0.3757   18.1884    1.8702 H   0  0  0  0  0  0  0  0  0  0  0  0
   -1.4712   18.7601    0.5664 H   0  0  0  0  0  0  0  0  0  0  0  0
   -0.8845   17.0624    0.5664 H   0  0  0  0  0  0  0  0  0  0  0  0
    1.2911   18.9818    1.9765 H   0  0  0  0  0  0  0  0  0  0  0  0
    2.6121   18.7803    0.7760 H   0  0  0  0  0  0  0  0  0  0  0  0
    1.6192   20.2772    0.7760 H   0  0  0  0  0  0  0  0  0  0  0  0
    2.8246   16.3410   -3.3336 H   0  0  0  0  0  0  0  0  0  0  0  0
    2.1941   15.0519   -4.4139 H   0  0  0  0  0  0  0  0  0  0  0  0
    1.4295   16.6773   -4.4139 H   0  0  0  0  0  0  0  0  0  0  0  0
   -0.9684   15.4150   -3.7160 H   0  0  0  0  0  0  0  0  0  0  0  0
    0.2620   14.1166   -4.2007 H   0  0  0  0  0  0  0  0  0  0  0  0
   -1.5816   14.1104   -1.7955 H   0  0  0  0  0  0  0  0  0  0  0  0
   -1.5961   13.0130   -3.2317 H   0  0  0  0  0  0  0  0  0  0  0  0
    1.5563   11.2358   -2.5007 H   0  0  0  0  0  0  0  0  0  0  0  0
    0.1365   11.3360   -3.5965 H   0  0  0  0  0  0  0  0  0  0  0  0
    1.3654   12.6462   -3.5965 H   0  0  0  0  0  0  0  0  0  0  0  0
  1  2  1  0
  2  3  1  0
  3  4  1  0
  4  5  1  0
  5  6  1  0
  6  7  1  0
  7  8  1  0
  7  9  1  0
  2 10  1  0
 10 11  1  0
 11 12  1  0
 12 13  1  0
 13 14  1  1
 13 15  1  0
 15 16  1  0
 16 17  1  0
 17 18  2  0
 18 19  1  0
 19 20  1  0
 20 21  1  0
 21 22  1  0
 22 23  1  0
 22 24  1  0
 24 25  1  0
 24 26  1  0
 19 27  1  0
 27 28  1  6
 27 29  1  0
 29 30  1  0
 30 31  1  0
 31 32  1  6
  7  5  1  0
 31 10  1  0
 31 13  1  0
 27 15  1  0
 24 18  1  0
  1 33  1  0
  1 34  1  0
  1 35  1  0
  2 36  1  6
  3 37  1  0
  3 38  1  0
  4 39  1  0
  4 40  1  0
  5 41  1  6
  8 42  1  0
  8 43  1  0
  8 44  1  0
  9 45  1  0
  9 46  1  0
  9 47  1  0
 10 48  1  1
 11 49  1  0
 11 50  1  0
 12 51  1  0
 12 52  1  0
 14 53  1  0
 14 54  1  0
 14 55  1  0
 15 56  1  6
 16 57  1  0
 16 58  1  0
 17 59  1  0
 19 60  1  1
 20 61  1  0
 20 62  1  0
 21 63  1  0
 21 64  1  0
 22 65  1  1
 23 66  1  0
 25 67  1  0
 25 68  1  0
 25 69  1  0
 26 70  1  0
 26 71  1  0
 26 72  1  0
 28 73  1  0
 28 74  1  0
 28 75  1  0
 29 76  1  0
 29 77  1  0
 30 78  1  0
 30 79  1  0
 32 80  1  0
 32 81  1  0
 32 82  1  0
M  END
>  <meeko>  (17) 
{"is_sidechain": [false], "intermolecular_energy": 2.731, "internal_energy": -0.839}

$$$$
