EPH_relaxed_0001_pdb2pqr_Repair_167_r2_0001_out
     RDKit          3D

 82 86  0  0  0  0  0  0  0  0999 V2000
   -5.1530    5.8460   -1.7710 C   0  0  0  0  0  0  0  0  0  0  0  0
   -5.4590    7.3460   -1.8100 C   0  0  2  0  0  0  0  0  0  0  0  0
   -5.2350    8.0190   -0.4410 C   0  0  0  0  0  0  0  0  0  0  0  0
   -4.2010    9.1470   -0.4720 C   0  0  0  0  0  0  0  0  0  0  0  0
   -2.8330    8.6370   -0.8120 C   0  0  2  0  0  0  0  0  0  0  0  0
   -1.8160    8.9660    0.1430 O   0  0  0  0  0  0  0  0  0  0  0  0
   -1.6670    9.5400   -1.1650 C   0  0  0  0  0  0  0  0  0  0  0  0
   -1.8140   11.0290   -1.1970 C   0  0  0  0  0  0  0  0  0  0  0  0
   -0.5280    8.9650   -1.9490 C   0  0  0  0  0  0  0  0  0  0  0  0
   -6.8930    7.5720   -2.2730 C   0  0  1  0  0  0  0  0  0  0  0  0
   -7.2020    6.8730   -3.6240 C   0  0  0  0  0  0  0  0  0  0  0  0
   -8.6770    6.4020   -3.5570 C   0  0  0  0  0  0  0  0  0  0  0  0
   -9.2630    7.1270   -2.3230 C   0  0  1  0  0  0  0  0  0  0  0  0
   -9.6120    8.5620   -2.8300 C   0  0  0  0  0  0  0  0  0  0  0  0
  -10.4890    6.4430   -1.6360 C   0  0  2  0  0  0  0  0  0  0  0  0
  -11.7440    6.3160   -2.5180 C   0  0  0  0  0  0  0  0  0  0  0  0
  -12.6970    7.4620   -2.4400 C   0  0  0  0  0  0  0  0  0  0  0  0
  -12.6990    8.4140   -1.4880 C   0  0  0  0  0  0  0  0  0  0  0  0
  -11.7340    8.3400   -0.2980 C   0  0  1  0  0  0  0  0  0  0  0  0
  -12.5090    8.6240    1.0150 C   0  0  0  0  0  0  0  0  0  0  0  0
  -13.2770    9.9410    0.9680 C   0  0  0  0  0  0  0  0  0  0  0  0
  -14.2680    9.9540   -0.1930 C   0  0  2  0  0  0  0  0  0  0  0  0
  -15.2860    8.9810    0.0590 O   0  0  0  0  0  0  0  0  0  0  0  0
  -13.6020    9.6690   -1.5690 C   0  0  0  0  0  0  0  0  0  0  0  0
  -12.7230   10.8760   -1.9810 C   0  0  0  0  0  0  0  0  0  0  0  0
  -14.7290    9.5700   -2.6330 C   0  0  0  0  0  0  0  0  0  0  0  0
  -10.8430    7.0270   -0.2090 C   0  0  1  0  0  0  0  0  0  0  0  0
  -11.6180    5.9080    0.5510 C   0  0  0  0  0  0  0  0  0  0  0  0
   -9.5570    7.3360    0.6460 C   0  0  0  0  0  0  0  0  0  0  0  0
   -8.3380    7.8990   -0.1100 C   0  0  0  0  0  0  0  0  0  0  0  0
   -8.0280    7.0590   -1.3520 C   0  0  2  0  0  0  0  0  0  0  0  0
   -7.6510    5.6160   -0.8720 C   0  0  0  0  0  0  0  0  0  0  0  0
   -5.0850    5.5127   -0.7249 H   0  0  0  0  0  0  0  0  0  0  0  0
   -5.9571    5.2944   -2.2800 H   0  0  0  0  0  0  0  0  0  0  0  0
   -4.1971    5.6534   -2.2800 H   0  0  0  0  0  0  0  0  0  0  0  0
   -4.7611    7.8082   -2.5237 H   0  0  0  0  0  0  0  0  0  0  0  0
   -6.1934    8.4357   -0.0979 H   0  0  0  0  0  0  0  0  0  0  0  0
   -4.8467    7.2455    0.2379 H   0  0  0  0  0  0  0  0  0  0  0  0
   -4.5034    9.8869   -1.2277 H   0  0  0  0  0  0  0  0  0  0  0  0
   -4.1585    9.6004    0.5293 H   0  0  0  0  0  0  0  0  0  0  0  0
   -3.2611    7.7554   -1.3116 H   0  0  0  0  0  0  0  0  0  0  0  0
   -1.8522   11.4159   -0.1680 H   0  0  0  0  0  0  0  0  0  0  0  0
   -0.9551   11.4710   -1.7233 H   0  0  0  0  0  0  0  0  0  0  0  0
   -2.7427   11.2945   -1.7233 H   0  0  0  0  0  0  0  0  0  0  0  0
    0.2356    8.5795   -1.2573 H   0  0  0  0  0  0  0  0  0  0  0  0
   -0.8962    8.1448   -2.5828 H   0  0  0  0  0  0  0  0  0  0  0  0
   -0.0867    9.7483   -2.5828 H   0  0  0  0  0  0  0  0  0  0  0  0
   -6.9040    8.6714   -2.3061 H   0  0  0  0  0  0  0  0  0  0  0  0
   -7.0676    7.5802   -4.4558 H   0  0  0  0  0  0  0  0  0  0  0  0
   -6.5237    6.0238   -3.7934 H   0  0  0  0  0  0  0  0  0  0  0  0
   -9.2185    6.6903   -4.4701 H   0  0  0  0  0  0  0  0  0  0  0  0
   -8.7622    5.3082   -3.4773 H   0  0  0  0  0  0  0  0  0  0  0  0
   -9.7735    9.2262   -1.9682 H   0  0  0  0  0  0  0  0  0  0  0  0
   -8.7815    8.9476   -3.4395 H   0  0  0  0  0  0  0  0  0  0  0  0
  -10.5269    8.5231   -3.4395 H   0  0  0  0  0  0  0  0  0  0  0  0
  -10.1278    5.4159   -1.4792 H   0  0  0  0  0  0  0  0  0  0  0  0
  -11.4161    6.2172   -3.5633 H   0  0  0  0  0  0  0  0  0  0  0  0
  -12.2918    5.4388   -2.1431 H   0  0  0  0  0  0  0  0  0  0  0  0
  -13.4623    7.5350   -3.2267 H   0  0  0  0  0  0  0  0  0  0  0  0
  -10.9830    9.1261   -0.4656 H   0  0  0  0  0  0  0  0  0  0  0  0
  -13.2233    7.8053    1.1869 H   0  0  0  0  0  0  0  0  0  0  0  0
  -11.7722    8.6962    1.8286 H   0  0  0  0  0  0  0  0  0  0  0  0
  -13.8267   10.0710    1.9119 H   0  0  0  0  0  0  0  0  0  0  0  0
  -12.5583   10.7614    0.8251 H   0  0  0  0  0  0  0  0  0  0  0  0
  -14.6930   10.9668   -0.2532 H   0  0  0  0  0  0  0  0  0  0  0  0
  -15.5420    9.0580    0.9930 H   0  0  0  0  0  0  0  0  0  0  0  0
  -12.3525   11.3847   -1.0788 H   0  0  0  0  0  0  0  0  0  0  0  0
  -11.8701   10.5215   -2.5784 H   0  0  0  0  0  0  0  0  0  0  0  0
  -13.3221   11.5790   -2.5784 H   0  0  0  0  0  0  0  0  0  0  0  0
  -15.7029    9.4845   -2.1287 H   0  0  0  0  0  0  0  0  0  0  0  0
  -14.7198   10.4724   -3.2619 H   0  0  0  0  0  0  0  0  0  0  0  0
  -14.5626    8.6830   -3.2619 H   0  0  0  0  0  0  0  0  0  0  0  0
  -11.5124    6.0604    1.6353 H   0  0  0  0  0  0  0  0  0  0  0  0
  -12.6826    5.9484    0.2770 H   0  0  0  0  0  0  0  0  0  0  0  0
  -11.2059    4.9256    0.2770 H   0  0  0  0  0  0  0  0  0  0  0  0
   -9.8381    8.0689    1.4166 H   0  0  0  0  0  0  0  0  0  0  0  0
   -9.2289    6.3607    1.0347 H   0  0  0  0  0  0  0  0  0  0  0  0
   -8.5521    8.9328   -0.4189 H   0  0  0  0  0  0  0  0  0  0  0  0
   -7.4658    7.8703    0.5597 H   0  0  0  0  0  0  0  0  0  0  0  0
   -7.6431    5.5857    0.2276 H   0  0  0  0  0  0  0  0  0  0  0  0
   -8.3916    4.8976   -1.2533 H   0  0  0  0  0  0  0  0  0  0  0  0
   -6.6536    5.3516   -1.2533 H   0  0  0  0  0  0  0  0  0  0  0  0
  1  2  1  0
  2  3  1  0
  3  4  1  0
  4  5  1  0
  5  6  1  0
  6  7  1  0
  7  8  1  0
  7  9  1  0
  2 10  1  0
 10 11  1  0
 11 12  1  0
 12 13  1  0
 13 14  1  6
 13 15  1  0
 15 16  1  0
 16 17  1  0
 17 18  2  0
 18 19  1  0
 19 20  1  0
 20 21  1  0
 21 22  1  0
 22 23  1  0
 22 24  1  0
 24 25  1  0
 24 26  1  0
 19 27  1  0
 27 28  1  1
 27 29  1  0
 29 30  1  0
 30 31  1  0
 31 32  1  1
  7  5  1  0
 31 10  1  0
 31 13  1  0
 27 15  1  0
 24 18  1  0
  1 33  1  0
  1 34  1  0
  1 35  1  0
  2 36  1  6
  3 37  1  0
  3 38  1  0
  4 39  1  0
  4 40  1  0
  5 41  1  6
  8 42  1  0
  8 43  1  0
  8 44  1  0
  9 45  1  0
  9 46  1  0
  9 47  1  0
 10 48  1  6
 11 49  1  0
 11 50  1  0
 12 51  1  0
 12 52  1  0
 14 53  1  0
 14 54  1  0
 14 55  1  0
 15 56  1  1
 16 57  1  0
 16 58  1  0
 17 59  1  0
 19 60  1  6
 20 61  1  0
 20 62  1  0
 21 63  1  0
 21 64  1  0
 22 65  1  6
 23 66  1  0
 25 67  1  0
 25 68  1  0
 25 69  1  0
 26 70  1  0
 26 71  1  0
 26 72  1  0
 28 73  1  0
 28 74  1  0
 28 75  1  0
 29 76  1  0
 29 77  1  0
 30 78  1  0
 30 79  1  0
 32 80  1  0
 32 81  1  0
 32 82  1  0
M  END
>  <meeko>  (1) 
{"is_sidechain": [false], "intermolecular_energy": 2.731, "internal_energy": -0.839}

$$$$
EPH_relaxed_0001_pdb2pqr_Repair_167_r2_0001_out
     RDKit          3D

 82 86  0  0  0  0  0  0  0  0999 V2000
   -4.1930    6.8670   -3.1720 C   0  0  0  0  0  0  0  0  0  0  0  0
   -4.2470    7.1590   -1.6700 C   0  0  2  0  0  0  0  0  0  0  0  0
   -5.6910    7.1520   -1.1290 C   0  0  0  0  0  0  0  0  0  0  0  0
   -6.7100    7.7740   -2.0880 C   0  0  0  0  0  0  0  0  0  0  0  0
   -8.0930    7.7660   -1.5090 C   0  0  2  0  0  0  0  0  0  0  0  0
   -8.5300    6.4910   -1.0210 O   0  0  0  0  0  0  0  0  0  0  0  0
   -9.2590    7.0260   -2.1380 C   0  0  0  0  0  0  0  0  0  0  0  0
   -9.0950    6.2420   -3.4020 C   0  0  0  0  0  0  0  0  0  0  0  0
  -10.6500    7.4610   -1.7970 C   0  0  0  0  0  0  0  0  0  0  0  0
   -3.5870    8.5010   -1.3770 C   0  0  1  0  0  0  0  0  0  0  0  0
   -4.1180    9.1560   -0.0740 C   0  0  0  0  0  0  0  0  0  0  0  0
   -2.9210    9.9010    0.5710 C   0  0  0  0  0  0  0  0  0  0  0  0
   -1.8390    9.9310   -0.5330 C   0  0  1  0  0  0  0  0  0  0  0  0
   -2.2430   11.1220   -1.4580 C   0  0  0  0  0  0  0  0  0  0  0  0
   -0.3580   10.0550   -0.0460 C   0  0  2  0  0  0  0  0  0  0  0  0
   -0.0280   11.3500    0.7160 C   0  0  0  0  0  0  0  0  0  0  0  0
    0.4510   12.4830   -0.1290 C   0  0  0  0  0  0  0  0  0  0  0  0
    0.8800   12.3830   -1.4010 C   0  0  0  0  0  0  0  0  0  0  0  0
    1.0060   11.0160   -2.0850 C   0  0  1  0  0  0  0  0  0  0  0  0
    2.3730   10.9250   -2.8130 C   0  0  0  0  0  0  0  0  0  0  0  0
    2.6000   12.0830   -3.7790 C   0  0  0  0  0  0  0  0  0  0  0  0
    2.5240   13.4230   -3.0520 C   0  0  2  0  0  0  0  0  0  0  0  0
    3.6300   13.5190   -2.1480 O   0  0  0  0  0  0  0  0  0  0  0  0
    1.1940   13.6240   -2.2730 C   0  0  0  0  0  0  0  0  0  0  0  0
    0.0300   13.8210   -3.2750 C   0  0  0  0  0  0  0  0  0  0  0  0
    1.3060   14.9480   -1.4710 C   0  0  0  0  0  0  0  0  0  0  0  0
    0.7190    9.7520   -1.1650 C   0  0  1  0  0  0  0  0  0  0  0  0
    2.0230    9.3260   -0.4240 C   0  0  0  0  0  0  0  0  0  0  0  0
    0.3100    8.5350   -2.0770 C   0  0  0  0  0  0  0  0  0  0  0  0
   -1.1850    8.4000   -2.4240 C   0  0  0  0  0  0  0  0  0  0  0  0
   -2.0530    8.5080   -1.1660 C   0  0  2  0  0  0  0  0  0  0  0  0
   -1.6840    7.3100   -0.2270 C   0  0  0  0  0  0  0  0  0  0  0  0
   -3.9951    5.7966   -3.3306 H   0  0  0  0  0  0  0  0  0  0  0  0
   -5.1557    7.1340   -3.6323 H   0  0  0  0  0  0  0  0  0  0  0  0
   -3.3894    7.4606   -3.6323 H   0  0  0  0  0  0  0  0  0  0  0  0
   -3.6983    6.3556   -1.1567 H   0  0  0  0  0  0  0  0  0  0  0  0
   -5.9853    6.1095   -0.9378 H   0  0  0  0  0  0  0  0  0  0  0  0
   -5.6949    7.7634   -0.2145 H   0  0  0  0  0  0  0  0  0  0  0  0
   -6.4162    8.8136   -2.2951 H   0  0  0  0  0  0  0  0  0  0  0  0
   -6.7213    7.1762   -3.0113 H   0  0  0  0  0  0  0  0  0  0  0  0
   -7.9790    8.8033   -1.1610 H   0  0  0  0  0  0  0  0  0  0  0  0
   -8.8754    5.1924   -3.1566 H   0  0  0  0  0  0  0  0  0  0  0  0
  -10.0236    6.2947   -3.9893 H   0  0  0  0  0  0  0  0  0  0  0  0
   -8.2654    6.6625   -3.9893 H   0  0  0  0  0  0  0  0  0  0  0  0
  -10.7652    7.4970   -0.7036 H   0  0  0  0  0  0  0  0  0  0  0  0
  -10.8354    8.4600   -2.2184 H   0  0  0  0  0  0  0  0  0  0  0  0
  -11.3716    6.7456   -2.2184 H   0  0  0  0  0  0  0  0  0  0  0  0
   -3.8416    9.0376   -2.3029 H   0  0  0  0  0  0  0  0  0  0  0  0
   -4.9246    9.8662   -0.3084 H   0  0  0  0  0  0  0  0  0  0  0  0
   -4.5276    8.3987    0.6106 H   0  0  0  0  0  0  0  0  0  0  0  0
   -3.2095   10.9225    0.8598 H   0  0  0  0  0  0  0  0  0  0  0  0
   -2.5675    9.4069    1.4880 H   0  0  0  0  0  0  0  0  0  0  0  0
   -2.5353   11.9836   -0.8398 H   0  0  0  0  0  0  0  0  0  0  0  0
   -1.3886   11.3993   -2.0930 H   0  0  0  0  0  0  0  0  0  0  0  0
   -3.0897   10.8223   -2.0930 H   0  0  0  0  0  0  0  0  0  0  0  0
   -0.2846    9.2458    0.6955 H   0  0  0  0  0  0  0  0  0  0  0  0
   -0.9383   11.6776    1.2394 H   0  0  0  0  0  0  0  0  0  0  0  0
    0.8038   11.1017    1.3916 H   0  0  0  0  0  0  0  0  0  0  0  0
    0.4537   13.4845    0.3261 H   0  0  0  0  0  0  0  0  0  0  0  0
    0.1885   10.9666   -2.8194 H   0  0  0  0  0  0  0  0  0  0  0  0
    3.1746   10.9320   -2.0598 H   0  0  0  0  0  0  0  0  0  0  0  0
    2.3769    9.9949   -3.4003 H   0  0  0  0  0  0  0  0  0  0  0  0
    3.5939   11.9787   -4.2387 H   0  0  0  0  0  0  0  0  0  0  0  0
    1.8152   12.0565   -4.5493 H   0  0  0  0  0  0  0  0  0  0  0  0
    2.5627   14.2148   -3.8146 H   0  0  0  0  0  0  0  0  0  0  0  0
    3.2790   13.7880   -1.2820 H   0  0  0  0  0  0  0  0  0  0  0  0
   -0.9073   13.9796   -2.7216 H   0  0  0  0  0  0  0  0  0  0  0  0
    0.2351   14.6972   -3.9076 H   0  0  0  0  0  0  0  0  0  0  0  0
   -0.0647   12.9261   -3.9076 H   0  0  0  0  0  0  0  0  0  0  0  0
    1.2873   14.7268   -0.3936 H   0  0  0  0  0  0  0  0  0  0  0  0
    2.2500   15.4521   -1.7255 H   0  0  0  0  0  0  0  0  0  0  0  0
    0.4601   15.6035   -1.7255 H   0  0  0  0  0  0  0  0  0  0  0  0
    1.8611    9.3789    0.6627 H   0  0  0  0  0  0  0  0  0  0  0  0
    2.2850    8.2955   -0.7060 H   0  0  0  0  0  0  0  0  0  0  0  0
    2.8428   10.0030   -0.7060 H   0  0  0  0  0  0  0  0  0  0  0  0
    0.8644    8.6264   -3.0227 H   0  0  0  0  0  0  0  0  0  0  0  0
    0.5511    7.6386   -1.4868 H   0  0  0  0  0  0  0  0  0  0  0  0
   -1.4654    9.2006   -3.1242 H   0  0  0  0  0  0  0  0  0  0  0  0
   -1.3509    7.4130   -2.8804 H   0  0  0  0  0  0  0  0  0  0  0  0
   -1.7806    7.6238    0.8229 H   0  0  0  0  0  0  0  0  0  0  0  0
   -2.3645    6.4680   -0.4222 H   0  0  0  0  0  0  0  0  0  0  0  0
   -0.6478    6.9968   -0.4222 H   0  0  0  0  0  0  0  0  0  0  0  0
  1  2  1  0
  2  3  1  0
  3  4  1  0
  4  5  1  0
  5  6  1  0
  6  7  1  0
  7  8  1  0
  7  9  1  0
  2 10  1  0
 10 11  1  0
 11 12  1  0
 12 13  1  0
 13 14  1  6
 13 15  1  0
 15 16  1  0
 16 17  1  0
 17 18  2  0
 18 19  1  0
 19 20  1  0
 20 21  1  0
 21 22  1  0
 22 23  1  0
 22 24  1  0
 24 25  1  0
 24 26  1  0
 19 27  1  0
 27 28  1  1
 27 29  1  0
 29 30  1  0
 30 31  1  0
 31 32  1  1
  7  5  1  0
 31 10  1  0
 31 13  1  0
 27 15  1  0
 24 18  1  0
  1 33  1  0
  1 34  1  0
  1 35  1  0
  2 36  1  1
  3 37  1  0
  3 38  1  0
  4 39  1  0
  4 40  1  0
  5 41  1  1
  8 42  1  0
  8 43  1  0
  8 44  1  0
  9 45  1  0
  9 46  1  0
  9 47  1  0
 10 48  1  6
 11 49  1  0
 11 50  1  0
 12 51  1  0
 12 52  1  0
 14 53  1  0
 14 54  1  0
 14 55  1  0
 15 56  1  1
 16 57  1  0
 16 58  1  0
 17 59  1  0
 19 60  1  6
 20 61  1  0
 20 62  1  0
 21 63  1  0
 21 64  1  0
 22 65  1  6
 23 66  1  0
 25 67  1  0
 25 68  1  0
 25 69  1  0
 26 70  1  0
 26 71  1  0
 26 72  1  0
 28 73  1  0
 28 74  1  0
 28 75  1  0
 29 76  1  0
 29 77  1  0
 30 78  1  0
 30 79  1  0
 32 80  1  0
 32 81  1  0
 32 82  1  0
M  END
>  <meeko>  (2) 
{"is_sidechain": [false], "intermolecular_energy": 2.731, "internal_energy": -0.839}

$$$$
EPH_relaxed_0001_pdb2pqr_Repair_167_r2_0001_out
     RDKit          3D

 82 86  0  0  0  0  0  0  0  0999 V2000
   -4.2180    9.0480   -0.4590 C   0  0  0  0  0  0  0  0  0  0  0  0
   -4.4440    7.8180   -1.3440 C   0  0  2  0  0  0  0  0  0  0  0  0
   -3.4180    7.7310   -2.4910 C   0  0  0  0  0  0  0  0  0  0  0  0
   -1.9680    7.9150   -2.0340 C   0  0  0  0  0  0  0  0  0  0  0  0
   -1.4530    9.2840   -2.3610 C   0  0  2  0  0  0  0  0  0  0  0  0
   -0.1030    9.3170   -2.8410 O   0  0  0  0  0  0  0  0  0  0  0  0
   -0.3450    9.9690   -1.5840 C   0  0  0  0  0  0  0  0  0  0  0  0
    0.3150    9.3040   -0.4170 C   0  0  0  0  0  0  0  0  0  0  0  0
   -0.2420   11.4610   -1.6490 C   0  0  0  0  0  0  0  0  0  0  0  0
   -5.8590    7.8400   -1.9110 C   0  0  1  0  0  0  0  0  0  0  0  0
   -5.9630    7.1230   -3.2840 C   0  0  0  0  0  0  0  0  0  0  0  0
   -7.3540    6.4410   -3.3280 C   0  0  0  0  0  0  0  0  0  0  0  0
   -8.1280    7.0550   -2.1370 C   0  0  1  0  0  0  0  0  0  0  0  0
   -8.6460    8.4310   -2.6630 C   0  0  0  0  0  0  0  0  0  0  0  0
   -9.2870    6.1890   -1.5460 C   0  0  2  0  0  0  0  0  0  0  0  0
  -10.4430    5.8940   -2.5180 C   0  0  0  0  0  0  0  0  0  0  0  0
  -11.5560    6.8880   -2.5070 C   0  0  0  0  0  0  0  0  0  0  0  0
  -11.7670    7.8150   -1.5540 C   0  0  0  0  0  0  0  0  0  0  0  0
  -10.8900    7.8650   -0.2960 C   0  0  1  0  0  0  0  0  0  0  0  0
  -11.7920    8.0140    0.9580 C   0  0  0  0  0  0  0  0  0  0  0  0
  -12.7390    9.2060    0.8590 C   0  0  0  0  0  0  0  0  0  0  0  0
  -13.6340    9.0910   -0.3720 C   0  0  2  0  0  0  0  0  0  0  0  0
  -14.5140    7.9760   -0.2000 O   0  0  0  0  0  0  0  0  0  0  0  0
  -12.8360    8.9270   -1.6960 C   0  0  0  0  0  0  0  0  0  0  0  0
  -12.1150   10.2540   -2.0370 C   0  0  0  0  0  0  0  0  0  0  0  0
  -13.8560    8.6800   -2.8400 C   0  0  0  0  0  0  0  0  0  0  0  0
   -9.8250    6.6950   -0.1460 C   0  0  1  0  0  0  0  0  0  0  0  0
  -10.4810    5.4640    0.5500 C   0  0  0  0  0  0  0  0  0  0  0  0
   -8.6640    7.1750    0.8030 C   0  0  0  0  0  0  0  0  0  0  0  0
   -7.4890    7.9210    0.1410 C   0  0  0  0  0  0  0  0  0  0  0  0
   -6.9700    7.1530   -1.0780 C   0  0  2  0  0  0  0  0  0  0  0  0
   -6.4210    5.7740   -0.5780 C   0  0  0  0  0  0  0  0  0  0  0  0
   -4.2722    8.7532    0.5994 H   0  0  0  0  0  0  0  0  0  0  0  0
   -3.2264    9.4747   -0.6705 H   0  0  0  0  0  0  0  0  0  0  0  0
   -4.9931    9.7993   -0.6705 H   0  0  0  0  0  0  0  0  0  0  0  0
   -4.3093    6.9268   -0.7134 H   0  0  0  0  0  0  0  0  0  0  0  0
   -3.5101    6.7428   -2.9653 H   0  0  0  0  0  0  0  0  0  0  0  0
   -3.6428    8.5526   -3.1870 H   0  0  0  0  0  0  0  0  0  0  0  0
   -1.9156    7.7650   -0.9455 H   0  0  0  0  0  0  0  0  0  0  0  0
   -1.3455    7.1790   -2.5639 H   0  0  0  0  0  0  0  0  0  0  0  0
   -2.4582    9.6159   -2.6602 H   0  0  0  0  0  0  0  0  0  0  0  0
   -0.0930    9.7151    0.5182 H   0  0  0  0  0  0  0  0  0  0  0  0
    0.1241    8.2214   -0.4557 H   0  0  0  0  0  0  0  0  0  0  0  0
    1.3990    9.4868   -0.4557 H   0  0  0  0  0  0  0  0  0  0  0  0
   -0.2137   11.8714   -0.6288 H   0  0  0  0  0  0  0  0  0  0  0  0
    0.6777   11.7421   -2.1830 H   0  0  0  0  0  0  0  0  0  0  0  0
   -1.1143   11.8658   -2.1830 H   0  0  0  0  0  0  0  0  0  0  0  0
   -6.0291    8.9264   -1.9407 H   0  0  0  0  0  0  0  0  0  0  0  0
   -5.8736    7.8542   -4.1009 H   0  0  0  0  0  0  0  0  0  0  0  0
   -5.1570    6.3845   -3.4060 H   0  0  0  0  0  0  0  0  0  0  0  0
   -7.8643    6.6607   -4.2774 H   0  0  0  0  0  0  0  0  0  0  0  0
   -7.2836    5.3454   -3.2593 H   0  0  0  0  0  0  0  0  0  0  0  0
   -8.8907    9.0810   -1.8100 H   0  0  0  0  0  0  0  0  0  0  0  0
   -7.8655    8.9071   -3.2748 H   0  0  0  0  0  0  0  0  0  0  0  0
   -9.5467    8.2742   -3.2748 H   0  0  0  0  0  0  0  0  0  0  0  0
   -8.7920    5.2229   -1.3685 H   0  0  0  0  0  0  0  0  0  0  0  0
  -10.0295    5.8583   -3.5367 H   0  0  0  0  0  0  0  0  0  0  0  0
  -10.8829    4.9417   -2.1868 H   0  0  0  0  0  0  0  0  0  0  0  0
  -12.2637    6.8609   -3.3487 H   0  0  0  0  0  0  0  0  0  0  0  0
  -10.2519    8.7544   -0.4051 H   0  0  0  0  0  0  0  0  0  0  0  0
  -12.3894    7.0976    1.0736 H   0  0  0  0  0  0  0  0  0  0  0  0
  -11.1348    8.1807    1.8242 H   0  0  0  0  0  0  0  0  0  0  0  0
  -13.3690    9.2411    1.7601 H   0  0  0  0  0  0  0  0  0  0  0  0
  -12.1396   10.1243    0.7727 H   0  0  0  0  0  0  0  0  0  0  0  0
  -14.1973   10.0318   -0.4592 H   0  0  0  0  0  0  0  0  0  0  0  0
  -14.9700    7.8280   -1.0460 H   0  0  0  0  0  0  0  0  0  0  0  0
  -11.8352   10.7690   -1.1061 H   0  0  0  0  0  0  0  0  0  0  0  0
  -11.2096   10.0391   -2.6236 H   0  0  0  0  0  0  0  0  0  0  0  0
  -12.7880   10.8967   -2.6236 H   0  0  0  0  0  0  0  0  0  0  0  0
  -14.8397    8.4418   -2.4091 H   0  0  0  0  0  0  0  0  0  0  0  0
  -13.9369    9.5845   -3.4607 H   0  0  0  0  0  0  0  0  0  0  0  0
  -13.5141    7.8387   -3.4607 H   0  0  0  0  0  0  0  0  0  0  0  0
  -10.4175    5.5831    1.6417 H   0  0  0  0  0  0  0  0  0  0  0  0
  -11.5368    5.3925    0.2497 H   0  0  0  0  0  0  0  0  0  0  0  0
   -9.9516    4.5477    0.2497 H   0  0  0  0  0  0  0  0  0  0  0  0
   -9.1045    7.8475    1.5538 H   0  0  0  0  0  0  0  0  0  0  0  0
   -8.2258    6.2523    1.2112 H   0  0  0  0  0  0  0  0  0  0  0  0
   -7.8294    8.9168   -0.1791 H   0  0  0  0  0  0  0  0  0  0  0  0
   -6.6729    8.0104    0.8731 H   0  0  0  0  0  0  0  0  0  0  0  0
   -6.4149    5.7588    0.5219 H   0  0  0  0  0  0  0  0  0  0  0  0
   -7.0657    4.9652   -0.9524 H   0  0  0  0  0  0  0  0  0  0  0  0
   -5.3968    5.6296   -0.9524 H   0  0  0  0  0  0  0  0  0  0  0  0
  1  2  1  0
  2  3  1  0
  3  4  1  0
  4  5  1  0
  5  6  1  0
  6  7  1  0
  7  8  1  0
  7  9  1  0
  2 10  1  0
 10 11  1  0
 11 12  1  0
 12 13  1  0
 13 14  1  6
 13 15  1  0
 15 16  1  0
 16 17  1  0
 17 18  2  0
 18 19  1  0
 19 20  1  0
 20 21  1  0
 21 22  1  0
 22 23  1  0
 22 24  1  0
 24 25  1  0
 24 26  1  0
 19 27  1  0
 27 28  1  1
 27 29  1  0
 29 30  1  0
 30 31  1  0
 31 32  1  1
  7  5  1  0
 31 10  1  0
 31 13  1  0
 27 15  1  0
 24 18  1  0
  1 33  1  0
  1 34  1  0
  1 35  1  0
  2 36  1  1
  3 37  1  0
  3 38  1  0
  4 39  1  0
  4 40  1  0
  5 41  1  6
  8 42  1  0
  8 43  1  0
  8 44  1  0
  9 45  1  0
  9 46  1  0
  9 47  1  0
 10 48  1  6
 11 49  1  0
 11 50  1  0
 12 51  1  0
 12 52  1  0
 14 53  1  0
 14 54  1  0
 14 55  1  0
 15 56  1  1
 16 57  1  0
 16 58  1  0
 17 59  1  0
 19 60  1  6
 20 61  1  0
 20 62  1  0
 21 63  1  0
 21 64  1  0
 22 65  1  6
 23 66  1  0
 25 67  1  0
 25 68  1  0
 25 69  1  0
 26 70  1  0
 26 71  1  0
 26 72  1  0
 28 73  1  0
 28 74  1  0
 28 75  1  0
 29 76  1  0
 29 77  1  0
 30 78  1  0
 30 79  1  0
 32 80  1  0
 32 81  1  0
 32 82  1  0
M  END
>  <meeko>  (3) 
{"is_sidechain": [false], "intermolecular_energy": 2.731, "internal_energy": -0.839}

$$$$
EPH_relaxed_0001_pdb2pqr_Repair_167_r2_0001_out
     RDKit          3D

 82 86  0  0  0  0  0  0  0  0999 V2000
   -2.9630    9.6720    0.3910 C   0  0  0  0  0  0  0  0  0  0  0  0
   -2.9120    9.6010   -1.1380 C   0  0  2  0  0  0  0  0  0  0  0  0
   -2.6540    8.1670   -1.6450 C   0  0  0  0  0  0  0  0  0  0  0  0
   -3.8670    7.5290   -2.3280 C   0  0  0  0  0  0  0  0  0  0  0  0
   -5.0680    7.5200   -1.4320 C   0  0  2  0  0  0  0  0  0  0  0  0
   -5.5130    6.2150   -1.0400 O   0  0  0  0  0  0  0  0  0  0  0  0
   -6.4210    6.9780   -1.8520 C   0  0  0  0  0  0  0  0  0  0  0  0
   -6.6430    6.4070   -3.2170 C   0  0  0  0  0  0  0  0  0  0  0  0
   -7.6380    7.4450   -1.1170 C   0  0  0  0  0  0  0  0  0  0  0  0
   -1.8350   10.5410   -1.6660 C   0  0  1  0  0  0  0  0  0  0  0  0
   -2.1070   12.0250   -1.3030 C   0  0  0  0  0  0  0  0  0  0  0  0
   -0.7260   12.6860   -1.0560 C   0  0  0  0  0  0  0  0  0  0  0  0
    0.2980   11.6650   -1.6030 C   0  0  1  0  0  0  0  0  0  0  0  0
    0.3190   11.9040   -3.1450 C   0  0  0  0  0  0  0  0  0  0  0  0
    1.7350   11.7310   -0.9890 C   0  0  2  0  0  0  0  0  0  0  0  0
    2.4870   13.0510   -1.2300 C   0  0  0  0  0  0  0  0  0  0  0  0
    3.3190   13.0930   -2.4690 C   0  0  0  0  0  0  0  0  0  0  0  0
    3.6850   12.0260   -3.2030 C   0  0  0  0  0  0  0  0  0  0  0  0
    3.3370   10.6020   -2.7490 C   0  0  1  0  0  0  0  0  0  0  0  0
    4.5900    9.6960   -2.8810 C   0  0  0  0  0  0  0  0  0  0  0  0
    5.1920    9.7320   -4.2820 C   0  0  0  0  0  0  0  0  0  0  0  0
    5.5790   11.1560   -4.6740 C   0  0  2  0  0  0  0  0  0  0  0  0
    6.6540   11.5890   -3.8360 O   0  0  0  0  0  0  0  0  0  0  0  0
    4.3980   12.1610   -4.5710 C   0  0  0  0  0  0  0  0  0  0  0  0
    3.3660   11.8690   -5.6880 C   0  0  0  0  0  0  0  0  0  0  0  0
    4.9550   13.5820   -4.8550 C   0  0  0  0  0  0  0  0  0  0  0  0
    2.6420   10.4780   -1.3260 C   0  0  1  0  0  0  0  0  0  0  0  0
    3.7270   10.4010   -0.2080 C   0  0  0  0  0  0  0  0  0  0  0  0
    1.8410    9.1240   -1.2610 C   0  0  0  0  0  0  0  0  0  0  0  0
    0.3870    9.1520   -1.7720 C   0  0  0  0  0  0  0  0  0  0  0  0
   -0.3880   10.3220   -1.1570 C   0  0  2  0  0  0  0  0  0  0  0  0
   -0.4440   10.0970    0.3920 C   0  0  0  0  0  0  0  0  0  0  0  0
   -2.3712    8.8481    0.8163 H   0  0  0  0  0  0  0  0  0  0  0  0
   -2.5478   10.6334    0.7275 H   0  0  0  0  0  0  0  0  0  0  0  0
   -4.0067    9.5855    0.7275 H   0  0  0  0  0  0  0  0  0  0  0  0
   -3.8966    9.9129   -1.5166 H   0  0  0  0  0  0  0  0  0  0  0  0
   -1.8249    8.1977   -2.3672 H   0  0  0  0  0  0  0  0  0  0  0  0
   -2.4199    7.5514   -0.7640 H   0  0  0  0  0  0  0  0  0  0  0  0
   -4.1052    8.1003   -3.2373 H   0  0  0  0  0  0  0  0  0  0  0  0
   -3.6138    6.4866   -2.5716 H   0  0  0  0  0  0  0  0  0  0  0  0
   -4.7647    8.4745   -0.9771 H   0  0  0  0  0  0  0  0  0  0  0  0
   -7.0403    5.3852   -3.1269 H   0  0  0  0  0  0  0  0  0  0  0  0
   -7.3631    7.0335   -3.7638 H   0  0  0  0  0  0  0  0  0  0  0  0
   -5.6889    6.3825   -3.7638 H   0  0  0  0  0  0  0  0  0  0  0  0
   -7.4606    7.3769   -0.0335 H   0  0  0  0  0  0  0  0  0  0  0  0
   -7.8522    8.4892   -1.3886 H   0  0  0  0  0  0  0  0  0  0  0  0
   -8.4957    6.8121   -1.3886 H   0  0  0  0  0  0  0  0  0  0  0  0
   -1.8962   10.3071   -2.7391 H   0  0  0  0  0  0  0  0  0  0  0  0
   -2.6252   12.5289   -2.1322 H   0  0  0  0  0  0  0  0  0  0  0  0
   -2.7469   12.1025   -0.4116 H   0  0  0  0  0  0  0  0  0  0  0  0
   -0.6499   13.6405   -1.5974 H   0  0  0  0  0  0  0  0  0  0  0  0
   -0.5580   12.9173    0.0062 H   0  0  0  0  0  0  0  0  0  0  0  0
    0.4136   12.9810   -3.3479 H   0  0  0  0  0  0  0  0  0  0  0  0
    1.1738   11.3711   -3.5870 H   0  0  0  0  0  0  0  0  0  0  0  0
   -0.6156   11.5284   -3.5870 H   0  0  0  0  0  0  0  0  0  0  0  0
    1.5322   11.6963    0.0916 H   0  0  0  0  0  0  0  0  0  0  0  0
    1.7436   13.8594   -1.2920 H   0  0  0  0  0  0  0  0  0  0  0  0
    3.1873   13.1606   -0.3889 H   0  0  0  0  0  0  0  0  0  0  0  0
    3.6622   14.0805   -2.8112 H   0  0  0  0  0  0  0  0  0  0  0  0
    2.5480   10.2502   -3.4299 H   0  0  0  0  0  0  0  0  0  0  0  0
    5.3493   10.0372   -2.1619 H   0  0  0  0  0  0  0  0  0  0  0  0
    4.2770    8.6611   -2.6783 H   0  0  0  0  0  0  0  0  0  0  0  0
    6.0893    9.0961   -4.3046 H   0  0  0  0  0  0  0  0  0  0  0  0
    4.4409    9.3634   -4.9961 H   0  0  0  0  0  0  0  0  0  0  0  0
    5.8833   11.1365   -5.7309 H   0  0  0  0  0  0  0  0  0  0  0  0
    6.6730   11.0070   -3.0570 H   0  0  0  0  0  0  0  0  0  0  0  0
    2.4018   11.5962   -5.2342 H   0  0  0  0  0  0  0  0  0  0  0  0
    3.2370   12.7659   -6.3116 H   0  0  0  0  0  0  0  0  0  0  0  0
    3.7261   11.0375   -6.3116 H   0  0  0  0  0  0  0  0  0  0  0  0
    5.1558   14.0942   -3.9025 H   0  0  0  0  0  0  0  0  0  0  0  0
    5.8881   13.5015   -5.4319 H   0  0  0  0  0  0  0  0  0  0  0  0
    4.2157   14.1571   -5.4319 H   0  0  0  0  0  0  0  0  0  0  0  0
    3.2406   10.4355    0.7780 H   0  0  0  0  0  0  0  0  0  0  0  0
    4.2892    9.4607   -0.3068 H   0  0  0  0  0  0  0  0  0  0  0  0
    4.4164   11.2525   -0.3068 H   0  0  0  0  0  0  0  0  0  0  0  0
    2.3903    8.3832   -1.8605 H   0  0  0  0  0  0  0  0  0  0  0  0
    1.7653    8.8852   -0.1899 H   0  0  0  0  0  0  0  0  0  0  0  0
    0.3923    9.2597   -2.8667 H   0  0  0  0  0  0  0  0  0  0  0  0
   -0.1056    8.2128   -1.4799 H   0  0  0  0  0  0  0  0  0  0  0  0
   -0.2094   11.0396    0.9082 H   0  0  0  0  0  0  0  0  0  0  0  0
   -1.4525    9.7636    0.6779 H   0  0  0  0  0  0  0  0  0  0  0  0
    0.2906    9.3298    0.6779 H   0  0  0  0  0  0  0  0  0  0  0  0
  1  2  1  0
  2  3  1  0
  3  4  1  0
  4  5  1  0
  5  6  1  0
  6  7  1  0
  7  8  1  0
  7  9  1  0
  2 10  1  0
 10 11  1  0
 11 12  1  0
 12 13  1  0
 13 14  1  6
 13 15  1  0
 15 16  1  0
 16 17  1  0
 17 18  2  0
 18 19  1  0
 19 20  1  0
 20 21  1  0
 21 22  1  0
 22 23  1  0
 22 24  1  0
 24 25  1  0
 24 26  1  0
 19 27  1  0
 27 28  1  1
 27 29  1  0
 29 30  1  0
 30 31  1  0
 31 32  1  1
  7  5  1  0
 31 10  1  0
 31 13  1  0
 27 15  1  0
 24 18  1  0
  1 33  1  0
  1 34  1  0
  1 35  1  0
  2 36  1  6
  3 37  1  0
  3 38  1  0
  4 39  1  0
  4 40  1  0
  5 41  1  1
  8 42  1  0
  8 43  1  0
  8 44  1  0
  9 45  1  0
  9 46  1  0
  9 47  1  0
 10 48  1  6
 11 49  1  0
 11 50  1  0
 12 51  1  0
 12 52  1  0
 14 53  1  0
 14 54  1  0
 14 55  1  0
 15 56  1  1
 16 57  1  0
 16 58  1  0
 17 59  1  0
 19 60  1  6
 20 61  1  0
 20 62  1  0
 21 63  1  0
 21 64  1  0
 22 65  1  6
 23 66  1  0
 25 67  1  0
 25 68  1  0
 25 69  1  0
 26 70  1  0
 26 71  1  0
 26 72  1  0
 28 73  1  0
 28 74  1  0
 28 75  1  0
 29 76  1  0
 29 77  1  0
 30 78  1  0
 30 79  1  0
 32 80  1  0
 32 81  1  0
 32 82  1  0
M  END
>  <meeko>  (4) 
{"is_sidechain": [false], "intermolecular_energy": 2.731, "internal_energy": -0.839}

$$$$
EPH_relaxed_0001_pdb2pqr_Repair_167_r2_0001_out
     RDKit          3D

 82 86  0  0  0  0  0  0  0  0999 V2000
   -2.0390   14.5050    0.3390 C   0  0  0  0  0  0  0  0  0  0  0  0
   -0.7000   15.2240    0.5270 C   0  0  2  0  0  0  0  0  0  0  0  0
   -0.5830   16.4760   -0.3650 C   0  0  0  0  0  0  0  0  0  0  0  0
   -1.0500   17.7640    0.3180 C   0  0  0  0  0  0  0  0  0  0  0  0
    0.1030   18.6520    0.6760 C   0  0  2  0  0  0  0  0  0  0  0  0
   -0.2330   20.0370    0.8320 O   0  0  0  0  0  0  0  0  0  0  0  0
    0.6560   19.7190   -0.2500 C   0  0  0  0  0  0  0  0  0  0  0  0
    0.0710   19.9540   -1.6070 C   0  0  0  0  0  0  0  0  0  0  0  0
    2.0590   20.1940   -0.0370 C   0  0  0  0  0  0  0  0  0  0  0  0
    0.4500   14.2670    0.2340 C   0  0  1  0  0  0  0  0  0  0  0  0
    0.6770   13.2390    1.3750 C   0  0  0  0  0  0  0  0  0  0  0  0
    1.1240   11.9160    0.7020 C   0  0  0  0  0  0  0  0  0  0  0  0
    1.4600   12.3130   -0.7540 C   0  0  1  0  0  0  0  0  0  0  0  0
    2.8990   12.9120   -0.6860 C   0  0  0  0  0  0  0  0  0  0  0  0
    1.3580   11.1740   -1.8210 C   0  0  2  0  0  0  0  0  0  0  0  0
    2.3270    9.9970   -1.6130 C   0  0  0  0  0  0  0  0  0  0  0  0
    3.6500   10.1320   -2.2920 C   0  0  0  0  0  0  0  0  0  0  0  0
    3.9430   11.0140   -3.2660 C   0  0  0  0  0  0  0  0  0  0  0  0
    2.8610   11.9330   -3.8480 C   0  0  1  0  0  0  0  0  0  0  0  0
    2.9490   11.9200   -5.3970 C   0  0  0  0  0  0  0  0  0  0  0  0
    4.3450   12.2660   -5.9060 C   0  0  0  0  0  0  0  0  0  0  0  0
    5.3840   11.2950   -5.3520 C   0  0  2  0  0  0  0  0  0  0  0  0
    5.1400    9.9960   -5.9000 O   0  0  0  0  0  0  0  0  0  0  0  0
    5.3820   11.2160   -3.8000 C   0  0  0  0  0  0  0  0  0  0  0  0
    5.9380   12.5370   -3.2110 C   0  0  0  0  0  0  0  0  0  0  0  0
    6.3760   10.1010   -3.3770 C   0  0  0  0  0  0  0  0  0  0  0  0
    1.3830   11.6850   -3.3190 C   0  0  1  0  0  0  0  0  0  0  0  0
    0.6880   10.5840   -4.1770 C   0  0  0  0  0  0  0  0  0  0  0  0
    0.5390   13.0000   -3.5160 C   0  0  0  0  0  0  0  0  0  0  0  0
    0.5860   14.0330   -2.3740 C   0  0  0  0  0  0  0  0  0  0  0  0
    0.3240   13.3660   -1.0200 C   0  0  2  0  0  0  0  0  0  0  0  0
   -1.1260   12.7740   -1.0520 C   0  0  0  0  0  0  0  0  0  0  0  0
   -2.4718   14.2726    1.3232 H   0  0  0  0  0  0  0  0  0  0  0  0
   -2.7284   15.1542   -0.2206 H   0  0  0  0  0  0  0  0  0  0  0  0
   -1.8786   13.5717   -0.2206 H   0  0  0  0  0  0  0  0  0  0  0  0
   -0.6483   15.5581    1.5738 H   0  0  0  0  0  0  0  0  0  0  0  0
    0.4711   16.5989   -0.6544 H   0  0  0  0  0  0  0  0  0  0  0  0
   -1.2404   16.3154   -1.2322 H   0  0  0  0  0  0  0  0  0  0  0  0
   -1.7193   18.3072   -0.3653 H   0  0  0  0  0  0  0  0  0  0  0  0
   -1.5721   17.4895    1.2465 H   0  0  0  0  0  0  0  0  0  0  0  0
    0.5863   17.8378    1.2359 H   0  0  0  0  0  0  0  0  0  0  0  0
   -0.9451   20.3622   -1.5026 H   0  0  0  0  0  0  0  0  0  0  0  0
    0.6988   20.6697   -2.1580 H   0  0  0  0  0  0  0  0  0  0  0  0
    0.0292   19.0029   -2.1580 H   0  0  0  0  0  0  0  0  0  0  0  0
    2.2629   20.2630    1.0417 H   0  0  0  0  0  0  0  0  0  0  0  0
    2.7607   19.4833   -0.4981 H   0  0  0  0  0  0  0  0  0  0  0  0
    2.1847   21.1848   -0.4981 H   0  0  0  0  0  0  0  0  0  0  0  0
    1.2637   14.9940    0.0951 H   0  0  0  0  0  0  0  0  0  0  0  0
    1.4593   13.5991    2.0593 H   0  0  0  0  0  0  0  0  0  0  0  0
   -0.2408   13.0926    1.9633 H   0  0  0  0  0  0  0  0  0  0  0  0
    2.0104   11.5039    1.2065 H   0  0  0  0  0  0  0  0  0  0  0  0
    0.3475   11.1386    0.7537 H   0  0  0  0  0  0  0  0  0  0  0  0
    3.1955   13.0354    0.3661 H   0  0  0  0  0  0  0  0  0  0  0  0
    3.6032   12.2323   -1.1881 H   0  0  0  0  0  0  0  0  0  0  0  0
    2.9129   13.8906   -1.1881 H   0  0  0  0  0  0  0  0  0  0  0  0
    0.3517   10.7689   -1.6384 H   0  0  0  0  0  0  0  0  0  0  0  0
    2.5083    9.8929   -0.5331 H   0  0  0  0  0  0  0  0  0  0  0  0
    1.8413    9.1196   -2.0650 H   0  0  0  0  0  0  0  0  0  0  0  0
    4.4532    9.4534   -1.9690 H   0  0  0  0  0  0  0  0  0  0  0  0
    3.0831   12.9418   -3.4698 H   0  0  0  0  0  0  0  0  0  0  0  0
    2.6811   10.9157   -5.7571 H   0  0  0  0  0  0  0  0  0  0  0  0
    2.2556   12.6845   -5.7775 H   0  0  0  0  0  0  0  0  0  0  0  0
    4.3513   12.2117   -7.0046 H   0  0  0  0  0  0  0  0  0  0  0  0
    4.5995   13.2819   -5.5696 H   0  0  0  0  0  0  0  0  0  0  0  0
    6.3755   11.6700   -5.6459 H   0  0  0  0  0  0  0  0  0  0  0  0
    4.2920    9.6810   -5.5440 H   0  0  0  0  0  0  0  0  0  0  0  0
    5.9166   12.4862   -2.1124 H   0  0  0  0  0  0  0  0  0  0  0  0
    6.9738   12.6828   -3.5512 H   0  0  0  0  0  0  0  0  0  0  0  0
    5.3182   13.3797   -3.5512 H   0  0  0  0  0  0  0  0  0  0  0  0
    6.4227   10.0486   -2.2792 H   0  0  0  0  0  0  0  0  0  0  0  0
    6.0344    9.1345   -3.7760 H   0  0  0  0  0  0  0  0  0  0  0  0
    7.3752   10.3299   -3.7760 H   0  0  0  0  0  0  0  0  0  0  0  0
    0.2200    9.8425   -3.5128 H   0  0  0  0  0  0  0  0  0  0  0  0
   -0.0826   11.0458   -4.8117 H   0  0  0  0  0  0  0  0  0  0  0  0
    1.4364   10.0870   -4.8117 H   0  0  0  0  0  0  0  0  0  0  0  0
    0.9029   13.4955   -4.4282 H   0  0  0  0  0  0  0  0  0  0  0  0
   -0.5082   12.6662   -3.5593 H   0  0  0  0  0  0  0  0  0  0  0  0
    1.5795   14.5049   -2.3564 H   0  0  0  0  0  0  0  0  0  0  0  0
   -0.1954   14.7868   -2.5506 H   0  0  0  0  0  0  0  0  0  0  0  0
   -1.4850   12.6274   -0.0226 H   0  0  0  0  0  0  0  0  0  0  0  0
   -1.7951   13.4709   -1.5779 H   0  0  0  0  0  0  0  0  0  0  0  0
   -1.1161   11.8079   -1.5779 H   0  0  0  0  0  0  0  0  0  0  0  0
  1  2  1  0
  2  3  1  0
  3  4  1  0
  4  5  1  0
  5  6  1  0
  6  7  1  0
  7  8  1  0
  7  9  1  0
  2 10  1  0
 10 11  1  0
 11 12  1  0
 12 13  1  0
 13 14  1  1
 13 15  1  0
 15 16  1  0
 16 17  1  0
 17 18  2  0
 18 19  1  0
 19 20  1  0
 20 21  1  0
 21 22  1  0
 22 23  1  0
 22 24  1  0
 24 25  1  0
 24 26  1  0
 19 27  1  0
 27 28  1  6
 27 29  1  0
 29 30  1  0
 30 31  1  0
 31 32  1  6
  7  5  1  0
 31 10  1  0
 31 13  1  0
 27 15  1  0
 24 18  1  0
  1 33  1  0
  1 34  1  0
  1 35  1  0
  2 36  1  1
  3 37  1  0
  3 38  1  0
  4 39  1  0
  4 40  1  0
  5 41  1  1
  8 42  1  0
  8 43  1  0
  8 44  1  0
  9 45  1  0
  9 46  1  0
  9 47  1  0
 10 48  1  6
 11 49  1  0
 11 50  1  0
 12 51  1  0
 12 52  1  0
 14 53  1  0
 14 54  1  0
 14 55  1  0
 15 56  1  1
 16 57  1  0
 16 58  1  0
 17 59  1  0
 19 60  1  1
 20 61  1  0
 20 62  1  0
 21 63  1  0
 21 64  1  0
 22 65  1  6
 23 66  1  0
 25 67  1  0
 25 68  1  0
 25 69  1  0
 26 70  1  0
 26 71  1  0
 26 72  1  0
 28 73  1  0
 28 74  1  0
 28 75  1  0
 29 76  1  0
 29 77  1  0
 30 78  1  0
 30 79  1  0
 32 80  1  0
 32 81  1  0
 32 82  1  0
M  END
>  <meeko>  (5) 
{"is_sidechain": [false], "intermolecular_energy": 2.731, "internal_energy": -0.839}

$$$$
EPH_relaxed_0001_pdb2pqr_Repair_167_r2_0001_out
     RDKit          3D

 82 86  0  0  0  0  0  0  0  0999 V2000
  -14.3800    5.4920    0.4460 C   0  0  0  0  0  0  0  0  0  0  0  0
  -13.8440    6.9160    0.2760 C   0  0  2  0  0  0  0  0  0  0  0  0
  -14.9630    7.9220   -0.0590 C   0  0  0  0  0  0  0  0  0  0  0  0
  -14.5650    9.3830    0.1650 C   0  0  0  0  0  0  0  0  0  0  0  0
  -15.2800   10.3040   -0.7780 C   0  0  2  0  0  0  0  0  0  0  0  0
  -15.1690    9.9470   -2.1620 O   0  0  0  0  0  0  0  0  0  0  0  0
  -14.5670   11.1940   -1.7790 C   0  0  0  0  0  0  0  0  0  0  0  0
  -13.0750   11.2090   -1.8860 C   0  0  0  0  0  0  0  0  0  0  0  0
  -15.2860   12.3970   -2.3050 C   0  0  0  0  0  0  0  0  0  0  0  0
  -12.7770    6.9430   -0.8120 C   0  0  1  0  0  0  0  0  0  0  0  0
  -13.1370    7.9020   -1.9780 C   0  0  0  0  0  0  0  0  0  0  0  0
  -11.8050    8.5220   -2.4750 C   0  0  0  0  0  0  0  0  0  0  0  0
  -10.7040    7.6610   -1.8130 C   0  0  1  0  0  0  0  0  0  0  0  0
  -10.5940    6.3900   -2.7120 C   0  0  0  0  0  0  0  0  0  0  0  0
   -9.3140    8.3500   -1.6150 C   0  0  2  0  0  0  0  0  0  0  0  0
   -8.6060    8.7760   -2.9130 C   0  0  0  0  0  0  0  0  0  0  0  0
   -7.6980    7.7520   -3.5100 C   0  0  0  0  0  0  0  0  0  0  0  0
   -7.2390    6.6530   -2.8820 C   0  0  0  0  0  0  0  0  0  0  0  0
   -7.5530    6.4020   -1.4020 C   0  0  1  0  0  0  0  0  0  0  0  0
   -6.2570    5.9810   -0.6610 C   0  0  0  0  0  0  0  0  0  0  0  0
   -5.5670    4.7910   -1.3210 C   0  0  0  0  0  0  0  0  0  0  0  0
   -5.2180    5.1000   -2.7750 C   0  0  2  0  0  0  0  0  0  0  0  0
   -4.2190    6.1240   -2.8020 O   0  0  0  0  0  0  0  0  0  0  0  0
   -6.4460    5.5450   -3.6180 C   0  0  0  0  0  0  0  0  0  0  0  0
   -7.3900    4.3370   -3.8410 C   0  0  0  0  0  0  0  0  0  0  0  0
   -5.9340    5.9610   -5.0230 C   0  0  0  0  0  0  0  0  0  0  0  0
   -8.3340    7.5660   -0.6520 C   0  0  1  0  0  0  0  0  0  0  0  0
   -7.3210    8.6150   -0.0980 C   0  0  0  0  0  0  0  0  0  0  0  0
   -9.0780    6.9640    0.5980 C   0  0  0  0  0  0  0  0  0  0  0  0
  -10.4940    6.4070    0.3620 C   0  0  0  0  0  0  0  0  0  0  0  0
  -11.3580    7.4130   -0.4050 C   0  0  2  0  0  0  0  0  0  0  0  0
  -11.5050    8.6940    0.4840 C   0  0  0  0  0  0  0  0  0  0  0  0
  -14.4678    5.2587    1.5174 H   0  0  0  0  0  0  0  0  0  0  0  0
  -15.3692    5.4135   -0.0286 H   0  0  0  0  0  0  0  0  0  0  0  0
  -13.6881    4.7807   -0.0286 H   0  0  0  0  0  0  0  0  0  0  0  0
  -13.4036    7.2204    1.2369 H   0  0  0  0  0  0  0  0  0  0  0  0
  -15.2385    7.7954   -1.1164 H   0  0  0  0  0  0  0  0  0  0  0  0
  -15.8006    7.7093    0.6216 H   0  0  0  0  0  0  0  0  0  0  0  0
  -14.8153    9.6662    1.1980 H   0  0  0  0  0  0  0  0  0  0  0  0
  -13.4844    9.4758   -0.0187 H   0  0  0  0  0  0  0  0  0  0  0  0
  -16.0541   10.5131   -0.0250 H   0  0  0  0  0  0  0  0  0  0  0  0
  -12.6351   11.2134   -0.8778 H   0  0  0  0  0  0  0  0  0  0  0  0
  -12.7373   10.3142   -2.4294 H   0  0  0  0  0  0  0  0  0  0  0  0
  -12.7554   12.1104   -2.4294 H   0  0  0  0  0  0  0  0  0  0  0  0
  -15.6491   13.0045   -1.4629 H   0  0  0  0  0  0  0  0  0  0  0  0
  -14.5977   12.9960   -2.9193 H   0  0  0  0  0  0  0  0  0  0  0  0
  -16.1396   12.0745   -2.9193 H   0  0  0  0  0  0  0  0  0  0  0  0
  -12.7580    5.8758   -1.0781 H   0  0  0  0  0  0  0  0  0  0  0  0
  -13.6217    7.3432   -2.7921 H   0  0  0  0  0  0  0  0  0  0  0  0
  -13.8363    8.6832   -1.6453 H   0  0  0  0  0  0  0  0  0  0  0  0
  -11.7355    8.4657   -3.5714 H   0  0  0  0  0  0  0  0  0  0  0  0
  -11.7166    9.5866   -2.2128 H   0  0  0  0  0  0  0  0  0  0  0  0
  -10.5166    5.4962   -2.0755 H   0  0  0  0  0  0  0  0  0  0  0  0
  -11.4887    6.3115   -3.3471 H   0  0  0  0  0  0  0  0  0  0  0  0
   -9.6991    6.4664   -3.3471 H   0  0  0  0  0  0  0  0  0  0  0  0
   -9.5847    9.2849   -1.1025 H   0  0  0  0  0  0  0  0  0  0  0  0
   -9.3785    9.0204   -3.6570 H   0  0  0  0  0  0  0  0  0  0  0  0
   -7.9668    9.6300   -2.6447 H   0  0  0  0  0  0  0  0  0  0  0  0
   -7.3771    7.9087   -4.5504 H   0  0  0  0  0  0  0  0  0  0  0  0
   -8.2792    5.5760   -1.3814 H   0  0  0  0  0  0  0  0  0  0  0  0
   -5.5615    6.8332   -0.6549 H   0  0  0  0  0  0  0  0  0  0  0  0
   -6.5378    5.6808    0.3593 H   0  0  0  0  0  0  0  0  0  0  0  0
   -4.6432    4.5597   -0.7704 H   0  0  0  0  0  0  0  0  0  0  0  0
   -6.2530    3.9314   -1.2997 H   0  0  0  0  0  0  0  0  0  0  0  0
   -4.8455    4.1703   -3.2298 H   0  0  0  0  0  0  0  0  0  0  0  0
   -4.2340    6.5260   -3.6870 H   0  0  0  0  0  0  0  0  0  0  0  0
   -7.7053    3.9335   -2.8675 H   0  0  0  0  0  0  0  0  0  0  0  0
   -8.2752    4.6629   -4.4069 H   0  0  0  0  0  0  0  0  0  0  0  0
   -6.8598    3.5569   -4.4069 H   0  0  0  0  0  0  0  0  0  0  0  0
   -5.0845    6.6512   -4.9141 H   0  0  0  0  0  0  0  0  0  0  0  0
   -5.6110    5.0662   -5.5753 H   0  0  0  0  0  0  0  0  0  0  0  0
   -6.7437    6.4603   -5.5753 H   0  0  0  0  0  0  0  0  0  0  0  0
   -7.3387    8.5966    1.0017 H   0  0  0  0  0  0  0  0  0  0  0  0
   -6.3089    8.3701   -0.4525 H   0  0  0  0  0  0  0  0  0  0  0  0
   -7.6010    9.6179   -0.4525 H   0  0  0  0  0  0  0  0  0  0  0  0
   -8.4590    6.1437    0.9904 H   0  0  0  0  0  0  0  0  0  0  0  0
   -9.2131    7.8104    1.2874 H   0  0  0  0  0  0  0  0  0  0  0  0
  -10.4223    5.4766   -0.2204 H   0  0  0  0  0  0  0  0  0  0  0  0
  -10.9626    6.2148    1.3385 H   0  0  0  0  0  0  0  0  0  0  0  0
  -11.4723    8.4091    1.5460 H   0  0  0  0  0  0  0  0  0  0  0  0
  -10.6807    9.3887    0.2652 H   0  0  0  0  0  0  0  0  0  0  0  0
  -12.4653    9.1839    0.2652 H   0  0  0  0  0  0  0  0  0  0  0  0
  1  2  1  0
  2  3  1  0
  3  4  1  0
  4  5  1  0
  5  6  1  0
  6  7  1  0
  7  8  1  0
  7  9  1  0
  2 10  1  0
 10 11  1  0
 11 12  1  0
 12 13  1  0
 13 14  1  6
 13 15  1  0
 15 16  1  0
 16 17  1  0
 17 18  2  0
 18 19  1  0
 19 20  1  0
 20 21  1  0
 21 22  1  0
 22 23  1  0
 22 24  1  0
 24 25  1  0
 24 26  1  0
 19 27  1  0
 27 28  1  1
 27 29  1  0
 29 30  1  0
 30 31  1  0
 31 32  1  1
  7  5  1  0
 31 10  1  0
 31 13  1  0
 27 15  1  0
 24 18  1  0
  1 33  1  0
  1 34  1  0
  1 35  1  0
  2 36  1  1
  3 37  1  0
  3 38  1  0
  4 39  1  0
  4 40  1  0
  5 41  1  1
  8 42  1  0
  8 43  1  0
  8 44  1  0
  9 45  1  0
  9 46  1  0
  9 47  1  0
 10 48  1  6
 11 49  1  0
 11 50  1  0
 12 51  1  0
 12 52  1  0
 14 53  1  0
 14 54  1  0
 14 55  1  0
 15 56  1  1
 16 57  1  0
 16 58  1  0
 17 59  1  0
 19 60  1  6
 20 61  1  0
 20 62  1  0
 21 63  1  0
 21 64  1  0
 22 65  1  6
 23 66  1  0
 25 67  1  0
 25 68  1  0
 25 69  1  0
 26 70  1  0
 26 71  1  0
 26 72  1  0
 28 73  1  0
 28 74  1  0
 28 75  1  0
 29 76  1  0
 29 77  1  0
 30 78  1  0
 30 79  1  0
 32 80  1  0
 32 81  1  0
 32 82  1  0
M  END
>  <meeko>  (6) 
{"is_sidechain": [false], "intermolecular_energy": 2.731, "internal_energy": -0.839}

$$$$
EPH_relaxed_0001_pdb2pqr_Repair_167_r2_0001_out
     RDKit          3D

 82 86  0  0  0  0  0  0  0  0999 V2000
   -1.2960   10.4340    1.5970 C   0  0  0  0  0  0  0  0  0  0  0  0
   -1.9790   10.1040    0.2670 C   0  0  2  0  0  0  0  0  0  0  0  0
   -2.8350    8.8240    0.3560 C   0  0  0  0  0  0  0  0  0  0  0  0
   -4.1760    8.9290   -0.3750 C   0  0  0  0  0  0  0  0  0  0  0  0
   -4.6910    7.5830   -0.7850 C   0  0  2  0  0  0  0  0  0  0  0  0
   -4.8130    7.3950   -2.2010 O   0  0  0  0  0  0  0  0  0  0  0  0
   -6.0380    7.3690   -1.4500 C   0  0  0  0  0  0  0  0  0  0  0  0
   -6.9550    8.5160   -1.7420 C   0  0  0  0  0  0  0  0  0  0  0  0
   -6.6680    6.0140   -1.3710 C   0  0  0  0  0  0  0  0  0  0  0  0
   -0.9330    9.9550   -0.8310 C   0  0  1  0  0  0  0  0  0  0  0  0
   -1.4370    9.1020   -2.0250 C   0  0  0  0  0  0  0  0  0  0  0  0
   -0.8050    9.7060   -3.3050 C   0  0  0  0  0  0  0  0  0  0  0  0
    0.2920   10.6640   -2.7840 C   0  0  1  0  0  0  0  0  0  0  0  0
    1.5110    9.7420   -2.4650 C   0  0  0  0  0  0  0  0  0  0  0  0
    0.6910   11.8400   -3.7340 C   0  0  2  0  0  0  0  0  0  0  0  0
    1.2980   11.4130   -5.0810 C   0  0  0  0  0  0  0  0  0  0  0  0
    2.7840   11.2700   -5.0940 C   0  0  0  0  0  0  0  0  0  0  0  0
    3.6240   11.7470   -4.1560 C   0  0  0  0  0  0  0  0  0  0  0  0
    3.1020   12.5970   -2.9910 C   0  0  1  0  0  0  0  0  0  0  0  0
    4.0080   13.8440   -2.8130 C   0  0  0  0  0  0  0  0  0  0  0  0
    5.4810   13.4790   -2.6550 C   0  0  0  0  0  0  0  0  0  0  0  0
    5.9780   12.6840   -3.8600 C   0  0  2  0  0  0  0  0  0  0  0  0
    5.9650   13.5350   -5.0100 O   0  0  0  0  0  0  0  0  0  0  0  0
    5.1350   11.4100   -4.1440 C   0  0  0  0  0  0  0  0  0  0  0  0
    5.3890   10.3600   -3.0340 C   0  0  0  0  0  0  0  0  0  0  0  0
    5.6530   10.7790   -5.4640 C   0  0  0  0  0  0  0  0  0  0  0  0
    1.5570   12.9680   -3.0400 C   0  0  1  0  0  0  0  0  0  0  0  0
    1.3480   14.2670   -3.8760 C   0  0  0  0  0  0  0  0  0  0  0  0
    1.0600   13.2930   -1.5820 C   0  0  0  0  0  0  0  0  0  0  0  0
    0.5660   12.1050   -0.7350 C   0  0  0  0  0  0  0  0  0  0  0  0
   -0.4350   11.2510   -1.5190 C   0  0  2  0  0  0  0  0  0  0  0  0
   -1.6820   12.1450   -1.8360 C   0  0  0  0  0  0  0  0  0  0  0  0
   -1.9436   10.1211    2.4293 H   0  0  0  0  0  0  0  0  0  0  0  0
   -0.3361    9.9003    1.6586 H   0  0  0  0  0  0  0  0  0  0  0  0
   -1.1176   11.5177    1.6586 H   0  0  0  0  0  0  0  0  0  0  0  0
   -2.6551   10.9376    0.0261 H   0  0  0  0  0  0  0  0  0  0  0  0
   -2.2639    7.9929   -0.0835 H   0  0  0  0  0  0  0  0  0  0  0  0
   -3.0606    8.6613    1.4202 H   0  0  0  0  0  0  0  0  0  0  0  0
   -4.9100    9.4031    0.2932 H   0  0  0  0  0  0  0  0  0  0  0  0
   -4.0247    9.5295   -1.2841 H   0  0  0  0  0  0  0  0  0  0  0  0
   -4.2152    7.1095    0.0864 H   0  0  0  0  0  0  0  0  0  0  0  0
   -7.3059    8.9549   -0.7963 H   0  0  0  0  0  0  0  0  0  0  0  0
   -6.4149    9.2787   -2.3221 H   0  0  0  0  0  0  0  0  0  0  0  0
   -7.8179    8.1571   -2.3221 H   0  0  0  0  0  0  0  0  0  0  0  0
   -6.7993    5.7316   -0.3160 H   0  0  0  0  0  0  0  0  0  0  0  0
   -7.6483    6.0358   -1.8695 H   0  0  0  0  0  0  0  0  0  0  0  0
   -6.0195    5.2785   -1.8695 H   0  0  0  0  0  0  0  0  0  0  0  0
   -0.1179    9.5008   -0.2485 H   0  0  0  0  0  0  0  0  0  0  0  0
   -1.1199    8.0557   -1.9035 H   0  0  0  0  0  0  0  0  0  0  0  0
   -2.5354    9.1146   -2.0833 H   0  0  0  0  0  0  0  0  0  0  0  0
   -0.3650    8.9157   -3.9309 H   0  0  0  0  0  0  0  0  0  0  0  0
   -1.5463   10.2226   -3.9323 H   0  0  0  0  0  0  0  0  0  0  0  0
    1.6283    9.6533   -1.3749 H   0  0  0  0  0  0  0  0  0  0  0  0
    1.3400    8.7452   -2.8977 H   0  0  0  0  0  0  0  0  0  0  0  0
    2.4236   10.1779   -2.8977 H   0  0  0  0  0  0  0  0  0  0  0  0
   -0.2834   12.2897   -3.9756 H   0  0  0  0  0  0  0  0  0  0  0  0
    0.8607   10.4426   -5.3585 H   0  0  0  0  0  0  0  0  0  0  0  0
    1.0638   12.2207   -5.7901 H   0  0  0  0  0  0  0  0  0  0  0  0
    3.2304   10.7292   -5.9415 H   0  0  0  0  0  0  0  0  0  0  0  0
    3.1650   11.9585   -2.0975 H   0  0  0  0  0  0  0  0  0  0  0  0
    3.8974   14.4893   -3.6969 H   0  0  0  0  0  0  0  0  0  0  0  0
    3.6910   14.3587   -1.8940 H   0  0  0  0  0  0  0  0  0  0  0  0
    6.0728   14.4017   -2.5635 H   0  0  0  0  0  0  0  0  0  0  0  0
    5.5944   12.8586   -1.7538 H   0  0  0  0  0  0  0  0  0  0  0  0
    6.9975   12.3404   -3.6306 H   0  0  0  0  0  0  0  0  0  0  0  0
    6.8510   13.5050   -5.4090 H   0  0  0  0  0  0  0  0  0  0  0  0
    5.2744   10.8338   -2.0479 H   0  0  0  0  0  0  0  0  0  0  0  0
    4.6635    9.5391   -3.1329 H   0  0  0  0  0  0  0  0  0  0  0  0
    6.4095    9.9614   -3.1329 H   0  0  0  0  0  0  0  0  0  0  0  0
    6.3350    9.9482   -5.2303 H   0  0  0  0  0  0  0  0  0  0  0  0
    4.8014   10.4009   -6.0486 H   0  0  0  0  0  0  0  0  0  0  0  0
    6.1897   11.5407   -6.0486 H   0  0  0  0  0  0  0  0  0  0  0  0
    1.2105   15.1217   -3.1973 H   0  0  0  0  0  0  0  0  0  0  0  0
    2.2298   14.4407   -4.5103 H   0  0  0  0  0  0  0  0  0  0  0  0
    0.4563   14.1553   -4.5103 H   0  0  0  0  0  0  0  0  0  0  0  0
    1.8962   13.7615   -1.0422 H   0  0  0  0  0  0  0  0  0  0  0  0
    0.1784   13.9372   -1.7156 H   0  0  0  0  0  0  0  0  0  0  0  0
    1.4272   11.4816   -0.4527 H   0  0  0  0  0  0  0  0  0  0  0  0
    0.0647   12.4982    0.1617 H   0  0  0  0  0  0  0  0  0  0  0  0
   -2.1444   12.4765   -0.8945 H   0  0  0  0  0  0  0  0  0  0  0  0
   -1.3653   13.0230   -2.4180 H   0  0  0  0  0  0  0  0  0  0  0  0
   -2.4119   11.5632   -2.4180 H   0  0  0  0  0  0  0  0  0  0  0  0
  1  2  1  0
  2  3  1  0
  3  4  1  0
  4  5  1  0
  5  6  1  0
  6  7  1  0
  7  8  1  0
  7  9  1  0
  2 10  1  0
 10 11  1  0
 11 12  1  0
 12 13  1  0
 13 14  1  1
 13 15  1  0
 15 16  1  0
 16 17  1  0
 17 18  2  0
 18 19  1  0
 19 20  1  0
 20 21  1  0
 21 22  1  0
 22 23  1  0
 22 24  1  0
 24 25  1  0
 24 26  1  0
 19 27  1  0
 27 28  1  6
 27 29  1  0
 29 30  1  0
 30 31  1  0
 31 32  1  6
  7  5  1  0
 31 10  1  0
 31 13  1  0
 27 15  1  0
 24 18  1  0
  1 33  1  0
  1 34  1  0
  1 35  1  0
  2 36  1  6
  3 37  1  0
  3 38  1  0
  4 39  1  0
  4 40  1  0
  5 41  1  1
  8 42  1  0
  8 43  1  0
  8 44  1  0
  9 45  1  0
  9 46  1  0
  9 47  1  0
 10 48  1  1
 11 49  1  0
 11 50  1  0
 12 51  1  0
 12 52  1  0
 14 53  1  0
 14 54  1  0
 14 55  1  0
 15 56  1  6
 16 57  1  0
 16 58  1  0
 17 59  1  0
 19 60  1  1
 20 61  1  0
 20 62  1  0
 21 63  1  0
 21 64  1  0
 22 65  1  1
 23 66  1  0
 25 67  1  0
 25 68  1  0
 25 69  1  0
 26 70  1  0
 26 71  1  0
 26 72  1  0
 28 73  1  0
 28 74  1  0
 28 75  1  0
 29 76  1  0
 29 77  1  0
 30 78  1  0
 30 79  1  0
 32 80  1  0
 32 81  1  0
 32 82  1  0
M  END
>  <meeko>  (7) 
{"is_sidechain": [false], "intermolecular_energy": 2.731, "internal_energy": -0.839}

$$$$
EPH_relaxed_0001_pdb2pqr_Repair_167_r2_0001_out
     RDKit          3D

 82 86  0  0  0  0  0  0  0  0999 V2000
   -1.2630    9.0550   -2.0810 C   0  0  0  0  0  0  0  0  0  0  0  0
   -1.7080    9.2620   -0.6310 C   0  0  2  0  0  0  0  0  0  0  0  0
   -3.2410    9.1860   -0.4770 C   0  0  0  0  0  0  0  0  0  0  0  0
   -3.8490    7.8890   -1.0160 C   0  0  0  0  0  0  0  0  0  0  0  0
   -5.3470    7.9400   -1.0230 C   0  0  2  0  0  0  0  0  0  0  0  0
   -5.9910    6.6800   -0.7970 O   0  0  0  0  0  0  0  0  0  0  0  0
   -6.2020    7.2760   -2.0870 C   0  0  0  0  0  0  0  0  0  0  0  0
   -5.5870    6.5140   -3.2180 C   0  0  0  0  0  0  0  0  0  0  0  0
   -7.5970    7.7770   -2.2990 C   0  0  0  0  0  0  0  0  0  0  0  0
   -1.2000   10.6040   -0.1180 C   0  0  1  0  0  0  0  0  0  0  0  0
   -0.3120   10.4630    1.1480 C   0  0  0  0  0  0  0  0  0  0  0  0
    0.7800   11.5590    1.0530 C   0  0  0  0  0  0  0  0  0  0  0  0
    0.2950   12.4970   -0.0770 C   0  0  1  0  0  0  0  0  0  0  0  0
   -0.7590   13.4280    0.6000 C   0  0  0  0  0  0  0  0  0  0  0  0
    1.4010   13.3180   -0.8160 C   0  0  2  0  0  0  0  0  0  0  0  0
    2.1770   14.3100    0.0670 C   0  0  0  0  0  0  0  0  0  0  0  0
    1.6010   15.6850    0.1410 C   0  0  0  0  0  0  0  0  0  0  0  0
    0.6730   16.1900   -0.6930 C   0  0  0  0  0  0  0  0  0  0  0  0
    0.1780   15.3840   -1.9010 C   0  0  1  0  0  0  0  0  0  0  0  0
    0.1620   16.2930   -3.1580 C   0  0  0  0  0  0  0  0  0  0  0  0
   -0.6380   17.5740   -2.9440 C   0  0  0  0  0  0  0  0  0  0  0  0
   -0.0800   18.3760   -1.7710 C   0  0  2  0  0  0  0  0  0  0  0  0
    1.2250   18.8500   -2.1160 O   0  0  0  0  0  0  0  0  0  0  0  0
   -0.0070   17.5600   -0.4500 C   0  0  0  0  0  0  0  0  0  0  0  0
   -1.4380   17.3040    0.0840 C   0  0  0  0  0  0  0  0  0  0  0  0
    0.7030   18.4380    0.6150 C   0  0  0  0  0  0  0  0  0  0  0  0
    0.9140   13.9990   -2.1590 C   0  0  1  0  0  0  0  0  0  0  0  0
    2.1870   14.2270   -3.0300 C   0  0  0  0  0  0  0  0  0  0  0  0
   -0.0350   13.0610   -2.9960 C   0  0  0  0  0  0  0  0  0  0  0  0
   -1.0230   12.1860   -2.2020 C   0  0  0  0  0  0  0  0  0  0  0  0
   -0.3090   11.4390   -1.0710 C   0  0  2  0  0  0  0  0  0  0  0  0
    0.7420   10.4780   -1.7230 C   0  0  0  0  0  0  0  0  0  0  0  0
   -0.2657    8.5911   -2.0958 H   0  0  0  0  0  0  0  0  0  0  0  0
   -1.9806    8.3982   -2.5946 H   0  0  0  0  0  0  0  0  0  0  0  0
   -1.2229   10.0269   -2.5946 H   0  0  0  0  0  0  0  0  0  0  0  0
   -1.2750    8.4467   -0.0328 H   0  0  0  0  0  0  0  0  0  0  0  0
   -3.4873    9.2672    0.5920 H   0  0  0  0  0  0  0  0  0  0  0  0
   -3.6652   10.0106   -1.0687 H   0  0  0  0  0  0  0  0  0  0  0  0
   -3.4929    7.7288   -2.0444 H   0  0  0  0  0  0  0  0  0  0  0  0
   -3.5370    7.0646   -0.3579 H   0  0  0  0  0  0  0  0  0  0  0  0
   -5.3370    8.9617   -0.6156 H   0  0  0  0  0  0  0  0  0  0  0  0
   -4.9438    5.7171   -2.8164 H   0  0  0  0  0  0  0  0  0  0  0  0
   -6.3814    6.0682   -3.8346 H   0  0  0  0  0  0  0  0  0  0  0  0
   -4.9836    7.1964   -3.8346 H   0  0  0  0  0  0  0  0  0  0  0  0
   -8.0768    7.9493   -1.3243 H   0  0  0  0  0  0  0  0  0  0  0  0
   -7.5659    8.7202   -2.8642 H   0  0  0  0  0  0  0  0  0  0  0  0
   -8.1731    7.0296   -2.8642 H   0  0  0  0  0  0  0  0  0  0  0  0
   -2.1609   11.1146    0.0433 H   0  0  0  0  0  0  0  0  0  0  0  0
   -0.9182   10.6098    2.0541 H   0  0  0  0  0  0  0  0  0  0  0  0
    0.1382    9.4610    1.2049 H   0  0  0  0  0  0  0  0  0  0  0  0
    0.8638   12.1069    2.0032 H   0  0  0  0  0  0  0  0  0  0  0  0
    1.7756   11.1388    0.8475 H   0  0  0  0  0  0  0  0  0  0  0  0
   -0.6695   13.3489    1.6935 H   0  0  0  0  0  0  0  0  0  0  0  0
   -0.5806   14.4688    0.2918 H   0  0  0  0  0  0  0  0  0  0  0  0
   -1.7698   13.1225    0.2918 H   0  0  0  0  0  0  0  0  0  0  0  0
    2.1247   12.5387   -1.0969 H   0  0  0  0  0  0  0  0  0  0  0  0
    2.2119   13.9010    1.0875 H   0  0  0  0  0  0  0  0  0  0  0  0
    3.1676   14.4202   -0.3983 H   0  0  0  0  0  0  0  0  0  0  0  0
    1.9657   16.3411    0.9451 H   0  0  0  0  0  0  0  0  0  0  0  0
   -0.8465   15.0670   -1.6562 H   0  0  0  0  0  0  0  0  0  0  0  0
    1.1979   16.5625   -3.4113 H   0  0  0  0  0  0  0  0  0  0  0  0
   -0.3205   15.7301   -3.9707 H   0  0  0  0  0  0  0  0  0  0  0  0
   -0.5869   18.1870   -3.8560 H   0  0  0  0  0  0  0  0  0  0  0  0
   -1.6805   17.3037   -2.7203 H   0  0  0  0  0  0  0  0  0  0  0  0
   -0.7703   19.2121   -1.5853 H   0  0  0  0  0  0  0  0  0  0  0  0
    1.6210   18.2040   -2.7250 H   0  0  0  0  0  0  0  0  0  0  0  0
   -1.4248   17.3064    1.1839 H   0  0  0  0  0  0  0  0  0  0  0  0
   -2.1110   18.0960   -0.2763 H   0  0  0  0  0  0  0  0  0  0  0  0
   -1.7946   16.3278   -0.2763 H   0  0  0  0  0  0  0  0  0  0  0  0
    0.4233   18.0921    1.6210 H   0  0  0  0  0  0  0  0  0  0  0  0
    1.7928   18.3573    0.4894 H   0  0  0  0  0  0  0  0  0  0  0  0
    0.3961   19.4868    0.4894 H   0  0  0  0  0  0  0  0  0  0  0  0
    3.0566   14.3828   -2.3746 H   0  0  0  0  0  0  0  0  0  0  0  0
    2.3596   13.3455   -3.6649 H   0  0  0  0  0  0  0  0  0  0  0  0
    2.0429   15.1136   -3.6649 H   0  0  0  0  0  0  0  0  0  0  0  0
   -0.6240   13.6999   -3.6704 H   0  0  0  0  0  0  0  0  0  0  0  0
    0.6355   12.3511   -3.5023 H   0  0  0  0  0  0  0  0  0  0  0  0
   -1.8057   12.8277   -1.7712 H   0  0  0  0  0  0  0  0  0  0  0  0
   -1.4641   11.4464   -2.8864 H   0  0  0  0  0  0  0  0  0  0  0  0
    1.3066    9.9617   -0.9327 H   0  0  0  0  0  0  0  0  0  0  0  0
    0.2227    9.7359   -2.3471 H   0  0  0  0  0  0  0  0  0  0  0  0
    1.4348   11.0615   -2.3471 H   0  0  0  0  0  0  0  0  0  0  0  0
  1  2  1  0
  2  3  1  0
  3  4  1  0
  4  5  1  0
  5  6  1  0
  6  7  1  0
  7  8  1  0
  7  9  1  0
  2 10  1  0
 10 11  1  0
 11 12  1  0
 12 13  1  0
 13 14  1  1
 13 15  1  0
 15 16  1  0
 16 17  1  0
 17 18  2  0
 18 19  1  0
 19 20  1  0
 20 21  1  0
 21 22  1  0
 22 23  1  0
 22 24  1  0
 24 25  1  0
 24 26  1  0
 19 27  1  0
 27 28  1  6
 27 29  1  0
 29 30  1  0
 30 31  1  0
 31 32  1  6
  7  5  1  0
 31 10  1  0
 31 13  1  0
 27 15  1  0
 24 18  1  0
  1 33  1  0
  1 34  1  0
  1 35  1  0
  2 36  1  1
  3 37  1  0
  3 38  1  0
  4 39  1  0
  4 40  1  0
  5 41  1  1
  8 42  1  0
  8 43  1  0
  8 44  1  0
  9 45  1  0
  9 46  1  0
  9 47  1  0
 10 48  1  1
 11 49  1  0
 11 50  1  0
 12 51  1  0
 12 52  1  0
 14 53  1  0
 14 54  1  0
 14 55  1  0
 15 56  1  6
 16 57  1  0
 16 58  1  0
 17 59  1  0
 19 60  1  1
 20 61  1  0
 20 62  1  0
 21 63  1  0
 21 64  1  0
 22 65  1  1
 23 66  1  0
 25 67  1  0
 25 68  1  0
 25 69  1  0
 26 70  1  0
 26 71  1  0
 26 72  1  0
 28 73  1  0
 28 74  1  0
 28 75  1  0
 29 76  1  0
 29 77  1  0
 30 78  1  0
 30 79  1  0
 32 80  1  0
 32 81  1  0
 32 82  1  0
M  END
>  <meeko>  (8) 
{"is_sidechain": [false], "intermolecular_energy": 2.731, "internal_energy": -0.839}

$$$$
EPH_relaxed_0001_pdb2pqr_Repair_167_r2_0001_out
     RDKit          3D

 82 86  0  0  0  0  0  0  0  0999 V2000
   -2.6020   10.0080    0.6940 C   0  0  0  0  0  0  0  0  0  0  0  0
   -1.1250   10.1440    1.0750 C   0  0  2  0  0  0  0  0  0  0  0  0
   -0.8200   11.4970    1.7480 C   0  0  0  0  0  0  0  0  0  0  0  0
    0.2570   11.4170    2.8330 C   0  0  0  0  0  0  0  0  0  0  0  0
    0.2960   12.6610    3.6680 C   0  0  2  0  0  0  0  0  0  0  0  0
    0.4660   12.4330    5.0730 O   0  0  0  0  0  0  0  0  0  0  0  0
   -0.7790   13.0280    4.6730 C   0  0  0  0  0  0  0  0  0  0  0  0
   -1.9710   12.1510    4.8960 C   0  0  0  0  0  0  0  0  0  0  0  0
   -0.9200   14.4620    5.0790 C   0  0  0  0  0  0  0  0  0  0  0  0
   -0.2510    9.9680   -0.1610 C   0  0  1  0  0  0  0  0  0  0  0  0
   -0.9170    9.0730   -1.2410 C   0  0  0  0  0  0  0  0  0  0  0  0
   -0.4880    9.6410   -2.6180 C   0  0  0  0  0  0  0  0  0  0  0  0
    0.6620   10.6230   -2.2950 C   0  0  1  0  0  0  0  0  0  0  0  0
    1.9260    9.7220   -2.1320 C   0  0  0  0  0  0  0  0  0  0  0  0
    0.9010   11.7710   -3.3290 C   0  0  2  0  0  0  0  0  0  0  0  0
    1.3070   11.3060   -4.7380 C   0  0  0  0  0  0  0  0  0  0  0  0
    2.7770   11.1740   -4.9670 C   0  0  0  0  0  0  0  0  0  0  0  0
    3.7400   11.6870   -4.1790 C   0  0  0  0  0  0  0  0  0  0  0  0
    3.3860   12.5710   -2.9760 C   0  0  1  0  0  0  0  0  0  0  0  0
    4.2930   13.8290   -2.9720 C   0  0  0  0  0  0  0  0  0  0  0  0
    5.7780   13.4800   -3.0240 C   0  0  0  0  0  0  0  0  0  0  0  0
    6.1000   12.6520   -4.2640 C   0  0  2  0  0  0  0  0  0  0  0  0
    5.9070   13.4650   -5.4250 O   0  0  0  0  0  0  0  0  0  0  0  0
    5.2410   11.3620   -4.3800 C   0  0  0  0  0  0  0  0  0  0  0  0
    5.6690   10.3500   -3.2890 C   0  0  0  0  0  0  0  0  0  0  0  0
    5.5650   10.6930   -5.7440 C   0  0  0  0  0  0  0  0  0  0  0  0
    1.8470   12.9270   -2.8060 C   0  0  1  0  0  0  0  0  0  0  0  0
    1.5000   14.1980   -3.6420 C   0  0  0  0  0  0  0  0  0  0  0  0
    1.5670   13.2950   -1.3010 C   0  0  0  0  0  0  0  0  0  0  0  0
    1.2190   12.1310   -0.3550 C   0  0  0  0  0  0  0  0  0  0  0  0
    0.1230   11.2450   -0.9550 C   0  0  2  0  0  0  0  0  0  0  0  0
   -1.1680   12.1190   -1.1100 C   0  0  0  0  0  0  0  0  0  0  0  0
   -3.2126    9.9518    1.6073 H   0  0  0  0  0  0  0  0  0  0  0  0
   -2.9095   10.8816    0.1005 H   0  0  0  0  0  0  0  0  0  0  0  0
   -2.7448    9.0929    0.1005 H   0  0  0  0  0  0  0  0  0  0  0  0
   -0.8984    9.3540    1.8062 H   0  0  0  0  0  0  0  0  0  0  0  0
   -0.4811   12.2011    0.9738 H   0  0  0  0  0  0  0  0  0  0  0  0
   -1.7470   11.8271    2.2396 H   0  0  0  0  0  0  0  0  0  0  0  0
    0.0434   10.5568    3.4846 H   0  0  0  0  0  0  0  0  0  0  0  0
    1.2335   11.3046    2.3393 H   0  0  0  0  0  0  0  0  0  0  0  0
    0.7619   13.2259    2.8471 H   0  0  0  0  0  0  0  0  0  0  0  0
   -2.1386   12.0277    5.9761 H   0  0  0  0  0  0  0  0  0  0  0  0
   -2.8575   12.6138    4.4379 H   0  0  0  0  0  0  0  0  0  0  0  0
   -1.7930   11.1669    4.4379 H   0  0  0  0  0  0  0  0  0  0  0  0
   -0.9270   14.5333    6.1767 H   0  0  0  0  0  0  0  0  0  0  0  0
   -0.0745   15.0411    4.6793 H   0  0  0  0  0  0  0  0  0  0  0  0
   -1.8621   14.8653    4.6793 H   0  0  0  0  0  0  0  0  0  0  0  0
    0.6472    9.5393    0.3075 H   0  0  0  0  0  0  0  0  0  0  0  0
   -0.5733    8.0333   -1.1362 H   0  0  0  0  0  0  0  0  0  0  0  0
   -2.0120    9.0755   -1.1361 H   0  0  0  0  0  0  0  0  0  0  0  0
   -0.1358    8.8345   -3.2779 H   0  0  0  0  0  0  0  0  0  0  0  0
   -1.3201   10.1322   -3.1437 H   0  0  0  0  0  0  0  0  0  0  0  0
    2.1347    9.5732   -1.0623 H   0  0  0  0  0  0  0  0  0  0  0  0
    1.7457    8.7475   -2.6094 H   0  0  0  0  0  0  0  0  0  0  0  0
    2.7884   10.2103   -2.6094 H   0  0  0  0  0  0  0  0  0  0  0  0
   -0.1040   12.2051   -3.4366 H   0  0  0  0  0  0  0  0  0  0  0  0
    0.8454   10.3239   -4.9181 H   0  0  0  0  0  0  0  0  0  0  0  0
    0.9604   12.0888   -5.4286 H   0  0  0  0  0  0  0  0  0  0  0  0
    3.0998   10.6100   -5.8545 H   0  0  0  0  0  0  0  0  0  0  0  0
    3.5889   11.9627   -2.0822 H   0  0  0  0  0  0  0  0  0  0  0  0
    4.0448   14.4455   -3.8485 H   0  0  0  0  0  0  0  0  0  0  0  0
    4.1098   14.3697   -2.0318 H   0  0  0  0  0  0  0  0  0  0  0  0
    6.3656   14.4095   -3.0492 H   0  0  0  0  0  0  0  0  0  0  0  0
    6.0314   12.8890   -2.1315 H   0  0  0  0  0  0  0  0  0  0  0  0
    7.1467   12.3246   -4.1785 H   0  0  0  0  0  0  0  0  0  0  0  0
    4.9510   13.6120   -5.5260 H   0  0  0  0  0  0  0  0  0  0  0  0
    5.4857   10.7834   -2.2947 H   0  0  0  0  0  0  0  0  0  0  0  0
    5.0855    9.4240   -3.3986 H   0  0  0  0  0  0  0  0  0  0  0  0
    6.7399   10.1237   -3.3986 H   0  0  0  0  0  0  0  0  0  0  0  0
    6.0384    9.7155   -5.5697 H   0  0  0  0  0  0  0  0  0  0  0  0
    4.6347   10.5534   -6.3141 H   0  0  0  0  0  0  0  0  0  0  0  0
    6.2513   11.3364   -6.3141 H   0  0  0  0  0  0  0  0  0  0  0  0
    1.2721   15.0327   -2.9628 H   0  0  0  0  0  0  0  0  0  0  0  0
    2.3581   14.4652   -4.2763 H   0  0  0  0  0  0  0  0  0  0  0  0
    0.6252   13.9921   -4.2763 H   0  0  0  0  0  0  0  0  0  0  0  0
    2.4677   13.7873   -0.9056 H   0  0  0  0  0  0  0  0  0  0  0  0
    0.6675   13.9278   -1.3219 H   0  0  0  0  0  0  0  0  0  0  0  0
    2.1202   11.5234   -0.1856 H   0  0  0  0  0  0  0  0  0  0  0  0
    0.8517   12.5485    0.5941 H   0  0  0  0  0  0  0  0  0  0  0  0
   -1.5551   12.3811   -0.1143 H   0  0  0  0  0  0  0  0  0  0  0  0
   -0.9242   13.0385   -1.6623 H   0  0  0  0  0  0  0  0  0  0  0  0
   -1.9312   11.5511   -1.6623 H   0  0  0  0  0  0  0  0  0  0  0  0
  1  2  1  0
  2  3  1  0
  3  4  1  0
  4  5  1  0
  5  6  1  0
  6  7  1  0
  7  8  1  0
  7  9  1  0
  2 10  1  0
 10 11  1  0
 11 12  1  0
 12 13  1  0
 13 14  1  1
 13 15  1  0
 15 16  1  0
 16 17  1  0
 17 18  2  0
 18 19  1  0
 19 20  1  0
 20 21  1  0
 21 22  1  0
 22 23  1  0
 22 24  1  0
 24 25  1  0
 24 26  1  0
 19 27  1  0
 27 28  1  6
 27 29  1  0
 29 30  1  0
 30 31  1  0
 31 32  1  6
  7  5  1  0
 31 10  1  0
 31 13  1  0
 27 15  1  0
 24 18  1  0
  1 33  1  0
  1 34  1  0
  1 35  1  0
  2 36  1  1
  3 37  1  0
  3 38  1  0
  4 39  1  0
  4 40  1  0
  5 41  1  6
  8 42  1  0
  8 43  1  0
  8 44  1  0
  9 45  1  0
  9 46  1  0
  9 47  1  0
 10 48  1  1
 11 49  1  0
 11 50  1  0
 12 51  1  0
 12 52  1  0
 14 53  1  0
 14 54  1  0
 14 55  1  0
 15 56  1  6
 16 57  1  0
 16 58  1  0
 17 59  1  0
 19 60  1  1
 20 61  1  0
 20 62  1  0
 21 63  1  0
 21 64  1  0
 22 65  1  1
 23 66  1  0
 25 67  1  0
 25 68  1  0
 25 69  1  0
 26 70  1  0
 26 71  1  0
 26 72  1  0
 28 73  1  0
 28 74  1  0
 28 75  1  0
 29 76  1  0
 29 77  1  0
 30 78  1  0
 30 79  1  0
 32 80  1  0
 32 81  1  0
 32 82  1  0
M  END
>  <meeko>  (9) 
{"is_sidechain": [false], "intermolecular_energy": 2.731, "internal_energy": -0.839}

$$$$
EPH_relaxed_0001_pdb2pqr_Repair_167_r2_0001_out
     RDKit          3D

 82 86  0  0  0  0  0  0  0  0999 V2000
  -15.1100    8.8290    0.6870 C   0  0  0  0  0  0  0  0  0  0  0  0
  -14.2490    9.0660   -0.5560 C   0  0  2  0  0  0  0  0  0  0  0  0
  -14.5970    8.0910   -1.6990 C   0  0  0  0  0  0  0  0  0  0  0  0
  -14.6410    8.7510   -3.0790 C   0  0  0  0  0  0  0  0  0  0  0  0
  -15.2870   10.1030   -3.0270 C   0  0  2  0  0  0  0  0  0  0  0  0
  -14.9620   10.9650   -4.1260 O   0  0  0  0  0  0  0  0  0  0  0  0
  -14.5140   11.3930   -2.8290 C   0  0  0  0  0  0  0  0  0  0  0  0
  -13.0260   11.3940   -2.6700 C   0  0  0  0  0  0  0  0  0  0  0  0
  -15.2430   12.5910   -2.3050 C   0  0  0  0  0  0  0  0  0  0  0  0
  -12.7720    8.9430   -0.1970 C   0  0  1  0  0  0  0  0  0  0  0  0
  -12.5280    8.9440    1.3350 C   0  0  0  0  0  0  0  0  0  0  0  0
  -11.3320    7.9940    1.5980 C   0  0  0  0  0  0  0  0  0  0  0  0
  -10.7210    7.7400    0.2000 C   0  0  1  0  0  0  0  0  0  0  0  0
   -9.8290    8.9890   -0.0810 C   0  0  0  0  0  0  0  0  0  0  0  0
   -9.9200    6.4080    0.0280 C   0  0  2  0  0  0  0  0  0  0  0  0
   -8.6700    6.2790    0.9160 C   0  0  0  0  0  0  0  0  0  0  0  0
   -7.4030    6.7900    0.3140 C   0  0  0  0  0  0  0  0  0  0  0  0
   -7.2140    7.0690   -0.9890 C   0  0  0  0  0  0  0  0  0  0  0  0
   -8.3100    6.7810   -2.0240 C   0  0  1  0  0  0  0  0  0  0  0  0
   -7.6860    6.0690   -3.2530 C   0  0  0  0  0  0  0  0  0  0  0  0
   -6.5140    6.8450   -3.8460 C   0  0  0  0  0  0  0  0  0  0  0  0
   -5.4200    7.0620   -2.8030 C   0  0  2  0  0  0  0  0  0  0  0  0
   -4.8470    5.7940   -2.4670 O   0  0  0  0  0  0  0  0  0  0  0  0
   -5.9330    7.7630   -1.5140 C   0  0  0  0  0  0  0  0  0  0  0  0
   -6.2730    9.2410   -1.8260 C   0  0  0  0  0  0  0  0  0  0  0  0
   -4.7660    7.7920   -0.4910 C   0  0  0  0  0  0  0  0  0  0  0  0
   -9.6010    6.0330   -1.4760 C   0  0  1  0  0  0  0  0  0  0  0  0
   -9.3780    4.4900   -1.5130 C   0  0  0  0  0  0  0  0  0  0  0  0
  -10.8130    6.3300   -2.4360 C   0  0  0  0  0  0  0  0  0  0  0  0
  -11.6380    7.5970   -2.1420 C   0  0  0  0  0  0  0  0  0  0  0  0
  -12.0320    7.6640   -0.6630 C   0  0  2  0  0  0  0  0  0  0  0  0
  -12.9490    6.4310   -0.3560 C   0  0  0  0  0  0  0  0  0  0  0  0
  -14.5042    8.9958    1.5899 H   0  0  0  0  0  0  0  0  0  0  0  0
  -15.9607    9.5264    0.6822 H   0  0  0  0  0  0  0  0  0  0  0  0
  -15.4839    7.7945    0.6822 H   0  0  0  0  0  0  0  0  0  0  0  0
  -14.4605   10.0839   -0.9154 H   0  0  0  0  0  0  0  0  0  0  0  0
  -13.8385    7.2946   -1.7190 H   0  0  0  0  0  0  0  0  0  0  0  0
  -15.6065    7.7044   -1.4954 H   0  0  0  0  0  0  0  0  0  0  0  0
  -13.6129    8.8614   -3.4542 H   0  0  0  0  0  0  0  0  0  0  0  0
  -15.2377    8.1114   -3.7460 H   0  0  0  0  0  0  0  0  0  0  0  0
  -16.1700    9.6870   -2.5197 H   0  0  0  0  0  0  0  0  0  0  0  0
  -12.7716   11.3942   -1.5998 H   0  0  0  0  0  0  0  0  0  0  0  0
  -12.6057   10.4961   -3.1467 H   0  0  0  0  0  0  0  0  0  0  0  0
  -12.6069   12.2924   -3.1467 H   0  0  0  0  0  0  0  0  0  0  0  0
  -15.2328   12.5743   -1.2052 H   0  0  0  0  0  0  0  0  0  0  0  0
  -14.7486   13.5064   -2.6624 H   0  0  0  0  0  0  0  0  0  0  0  0
  -16.2832   12.5726   -2.6624 H   0  0  0  0  0  0  0  0  0  0  0  0
  -12.3783    9.8212   -0.7297 H   0  0  0  0  0  0  0  0  0  0  0  0
  -12.2872    9.9605    1.6795 H   0  0  0  0  0  0  0  0  0  0  0  0
  -13.4245    8.6100    1.8779 H   0  0  0  0  0  0  0  0  0  0  0  0
  -10.5963    8.4706    2.2626 H   0  0  0  0  0  0  0  0  0  0  0  0
  -11.6407    7.0620    2.0940 H   0  0  0  0  0  0  0  0  0  0  0  0
   -9.5108    9.4345    0.8731 H   0  0  0  0  0  0  0  0  0  0  0  0
   -8.9428    8.6845   -0.6571 H   0  0  0  0  0  0  0  0  0  0  0  0
  -10.4045    9.7285   -0.6571 H   0  0  0  0  0  0  0  0  0  0  0  0
  -10.6307    5.6558    0.4010 H   0  0  0  0  0  0  0  0  0  0  0  0
   -8.8543    6.8382    1.8451 H   0  0  0  0  0  0  0  0  0  0  0  0
   -8.5186    5.2008    1.0725 H   0  0  0  0  0  0  0  0  0  0  0  0
   -6.5524    6.9521    0.9924 H   0  0  0  0  0  0  0  0  0  0  0  0
   -8.7115    7.7603   -2.3236 H   0  0  0  0  0  0  0  0  0  0  0  0
   -7.3300    5.0758   -2.9419 H   0  0  0  0  0  0  0  0  0  0  0  0
   -8.4640    5.9960   -4.0272 H   0  0  0  0  0  0  0  0  0  0  0  0
   -6.0978    6.2780   -4.6917 H   0  0  0  0  0  0  0  0  0  0  0  0
   -6.8775    7.8269   -4.1832 H   0  0  0  0  0  0  0  0  0  0  0  0
   -4.6689    7.7326   -3.2458 H   0  0  0  0  0  0  0  0  0  0  0  0
   -5.4930    5.1070   -2.7030 H   0  0  0  0  0  0  0  0  0  0  0  0
   -6.4004    9.7947   -0.8841 H   0  0  0  0  0  0  0  0  0  0  0  0
   -5.4548    9.6905   -2.4078 H   0  0  0  0  0  0  0  0  0  0  0  0
   -7.2054    9.2878   -2.4078 H   0  0  0  0  0  0  0  0  0  0  0  0
   -5.1736    7.7819    0.5306 H   0  0  0  0  0  0  0  0  0  0  0  0
   -4.1264    6.9095   -0.6393 H   0  0  0  0  0  0  0  0  0  0  0  0
   -4.1710    8.7052   -0.6393 H   0  0  0  0  0  0  0  0  0  0  0  0
   -9.3220    4.1029   -0.4849 H   0  0  0  0  0  0  0  0  0  0  0  0
  -10.2162    4.0109   -2.0401 H   0  0  0  0  0  0  0  0  0  0  0  0
   -8.4384    4.2678   -2.0401 H   0  0  0  0  0  0  0  0  0  0  0  0
  -10.4139    6.4223   -3.4569 H   0  0  0  0  0  0  0  0  0  0  0  0
  -11.5099    5.4920   -2.2872 H   0  0  0  0  0  0  0  0  0  0  0  0
  -11.0382    8.4837   -2.3951 H   0  0  0  0  0  0  0  0  0  0  0  0
  -12.5553    7.5667   -2.7483 H   0  0  0  0  0  0  0  0  0  0  0  0
  -13.0423    6.3055    0.7328 H   0  0  0  0  0  0  0  0  0  0  0  0
  -13.9449    6.5969   -0.7927 H   0  0  0  0  0  0  0  0  0  0  0  0
  -12.5035    5.5250   -0.7927 H   0  0  0  0  0  0  0  0  0  0  0  0
  1  2  1  0
  2  3  1  0
  3  4  1  0
  4  5  1  0
  5  6  1  0
  6  7  1  0
  7  8  1  0
  7  9  1  0
  2 10  1  0
 10 11  1  0
 11 12  1  0
 12 13  1  0
 13 14  1  6
 13 15  1  0
 15 16  1  0
 16 17  1  0
 17 18  2  0
 18 19  1  0
 19 20  1  0
 20 21  1  0
 21 22  1  0
 22 23  1  0
 22 24  1  0
 24 25  1  0
 24 26  1  0
 19 27  1  0
 27 28  1  1
 27 29  1  0
 29 30  1  0
 30 31  1  0
 31 32  1  1
  7  5  1  0
 31 10  1  0
 31 13  1  0
 27 15  1  0
 24 18  1  0
  1 33  1  0
  1 34  1  0
  1 35  1  0
  2 36  1  6
  3 37  1  0
  3 38  1  0
  4 39  1  0
  4 40  1  0
  5 41  1  1
  8 42  1  0
  8 43  1  0
  8 44  1  0
  9 45  1  0
  9 46  1  0
  9 47  1  0
 10 48  1  6
 11 49  1  0
 11 50  1  0
 12 51  1  0
 12 52  1  0
 14 53  1  0
 14 54  1  0
 14 55  1  0
 15 56  1  1
 16 57  1  0
 16 58  1  0
 17 59  1  0
 19 60  1  6
 20 61  1  0
 20 62  1  0
 21 63  1  0
 21 64  1  0
 22 65  1  6
 23 66  1  0
 25 67  1  0
 25 68  1  0
 25 69  1  0
 26 70  1  0
 26 71  1  0
 26 72  1  0
 28 73  1  0
 28 74  1  0
 28 75  1  0
 29 76  1  0
 29 77  1  0
 30 78  1  0
 30 79  1  0
 32 80  1  0
 32 81  1  0
 32 82  1  0
M  END
>  <meeko>  (10) 
{"is_sidechain": [false], "intermolecular_energy": 2.731, "internal_energy": -0.839}

$$$$
EPH_relaxed_0001_pdb2pqr_Repair_167_r2_0001_out
     RDKit          3D

 82 86  0  0  0  0  0  0  0  0999 V2000
   -1.3500   17.7060    0.5720 C   0  0  0  0  0  0  0  0  0  0  0  0
   -0.1340   17.5170   -0.3400 C   0  0  2  0  0  0  0  0  0  0  0  0
    0.0480   18.6970   -1.3150 C   0  0  0  0  0  0  0  0  0  0  0  0
    0.5750   19.9710   -0.6490 C   0  0  0  0  0  0  0  0  0  0  0  0
    1.9700   19.7890   -0.1310 C   0  0  2  0  0  0  0  0  0  0  0  0
    2.1590   18.6260    0.6850 O   0  0  0  0  0  0  0  0  0  0  0  0
    2.3380   19.8940    1.3370 C   0  0  0  0  0  0  0  0  0  0  0  0
    1.3070   20.1930    2.3800 C   0  0  0  0  0  0  0  0  0  0  0  0
    3.7590   20.1910    1.6990 C   0  0  0  0  0  0  0  0  0  0  0  0
   -0.2660   16.2130   -1.1180 C   0  0  1  0  0  0  0  0  0  0  0  0
    0.0900   16.3750   -2.6190 C   0  0  0  0  0  0  0  0  0  0  0  0
    0.7700   15.0540   -3.0630 C   0  0  0  0  0  0  0  0  0  0  0  0
    0.4870   14.0630   -1.9100 C   0  0  1  0  0  0  0  0  0  0  0  0
   -0.9650   13.5500   -2.1690 C   0  0  0  0  0  0  0  0  0  0  0  0
    1.4970   12.8810   -1.7510 C   0  0  2  0  0  0  0  0  0  0  0  0
    1.5670   11.9170   -2.9480 C   0  0  0  0  0  0  0  0  0  0  0  0
    0.6310   10.7550   -2.8870 C   0  0  0  0  0  0  0  0  0  0  0  0
   -0.0270   10.3370   -1.7890 C   0  0  0  0  0  0  0  0  0  0  0  0
    0.2190   10.9960   -0.4260 C   0  0  1  0  0  0  0  0  0  0  0  0
    0.4050    9.8980    0.6540 C   0  0  0  0  0  0  0  0  0  0  0  0
   -0.7540    8.9060    0.6860 C   0  0  0  0  0  0  0  0  0  0  0  0
   -0.9290    8.2290   -0.6710 C   0  0  2  0  0  0  0  0  0  0  0  0
    0.2130    7.4040   -0.9250 O   0  0  0  0  0  0  0  0  0  0  0  0
   -1.1150    9.2370   -1.8390 C   0  0  0  0  0  0  0  0  0  0  0  0
   -2.5010    9.9180   -1.7230 C   0  0  0  0  0  0  0  0  0  0  0  0
   -1.1380    8.4310   -3.1660 C   0  0  0  0  0  0  0  0  0  0  0  0
    1.3660   12.0950   -0.3830 C   0  0  1  0  0  0  0  0  0  0  0  0
    2.7450   11.4150   -0.1260 C   0  0  0  0  0  0  0  0  0  0  0  0
    1.1110   13.0570    0.8370 C   0  0  0  0  0  0  0  0  0  0  0  0
    0.2000   14.2730    0.5850 C   0  0  0  0  0  0  0  0  0  0  0  0
    0.6300   15.0280   -0.6770 C   0  0  2  0  0  0  0  0  0  0  0  0
    2.0780   15.5750   -0.4370 C   0  0  0  0  0  0  0  0  0  0  0  0
   -1.0309   17.6564    1.6235 H   0  0  0  0  0  0  0  0  0  0  0  0
   -1.8082   18.6862    0.3737 H   0  0  0  0  0  0  0  0  0  0  0  0
   -2.0841   16.9112    0.3737 H   0  0  0  0  0  0  0  0  0  0  0  0
    0.7589   17.4779    0.3012 H   0  0  0  0  0  0  0  0  0  0  0  0
    0.7597   18.3944   -2.0973 H   0  0  0  0  0  0  0  0  0  0  0  0
   -0.9464   18.9346   -1.7208 H   0  0  0  0  0  0  0  0  0  0  0  0
    0.5723   20.7865   -1.3872 H   0  0  0  0  0  0  0  0  0  0  0  0
   -0.0791   20.2086    0.2029 H   0  0  0  0  0  0  0  0  0  0  0  0
    2.3907   20.2587   -1.0324 H   0  0  0  0  0  0  0  0  0  0  0  0
    1.7485   20.0650    3.3793 H   0  0  0  0  0  0  0  0  0  0  0  0
    0.9575   21.2295    2.2636 H   0  0  0  0  0  0  0  0  0  0  0  0
    0.4572   19.5043    2.2636 H   0  0  0  0  0  0  0  0  0  0  0  0
    3.8616   20.2124    2.7940 H   0  0  0  0  0  0  0  0  0  0  0  0
    4.4138   19.4103    1.2846 H   0  0  0  0  0  0  0  0  0  0  0  0
    4.0463   21.1686    1.2846 H   0  0  0  0  0  0  0  0  0  0  0  0
   -1.3220   15.9824   -0.9141 H   0  0  0  0  0  0  0  0  0  0  0  0
   -0.8227   16.5478   -3.2082 H   0  0  0  0  0  0  0  0  0  0  0  0
    0.7578   17.2349   -2.7758 H   0  0  0  0  0  0  0  0  0  0  0  0
    0.3330   14.6896   -4.0044 H   0  0  0  0  0  0  0  0  0  0  0  0
    1.8467   15.1811   -3.2491 H   0  0  0  0  0  0  0  0  0  0  0  0
   -1.4681   13.3722   -1.2071 H   0  0  0  0  0  0  0  0  0  0  0  0
   -1.5240   14.3050   -2.7412 H   0  0  0  0  0  0  0  0  0  0  0  0
   -0.9257   12.6114   -2.7412 H   0  0  0  0  0  0  0  0  0  0  0  0
    2.4661   13.4010   -1.7288 H   0  0  0  0  0  0  0  0  0  0  0  0
    1.3391   12.4895   -3.8592 H   0  0  0  0  0  0  0  0  0  0  0  0
    2.5813   11.4915   -2.9370 H   0  0  0  0  0  0  0  0  0  0  0  0
    0.4650   10.1929   -3.8179 H   0  0  0  0  0  0  0  0  0  0  0  0
   -0.6830   11.5863   -0.2070 H   0  0  0  0  0  0  0  0  0  0  0  0
    1.3338    9.3483    0.4416 H   0  0  0  0  0  0  0  0  0  0  0  0
    0.4446   10.3967    1.6336 H   0  0  0  0  0  0  0  0  0  0  0  0
   -0.5506    8.1389    1.4477 H   0  0  0  0  0  0  0  0  0  0  0  0
   -1.6776    9.4522    0.9280 H   0  0  0  0  0  0  0  0  0  0  0  0
   -1.8501    7.6296   -0.6244 H   0  0  0  0  0  0  0  0  0  0  0  0
    0.3630    6.8580   -0.1340 H   0  0  0  0  0  0  0  0  0  0  0  0
   -2.7594   10.0450   -0.6614 H   0  0  0  0  0  0  0  0  0  0  0  0
   -2.4680   10.9025   -2.2126 H   0  0  0  0  0  0  0  0  0  0  0  0
   -3.2601    9.2903   -2.2126 H   0  0  0  0  0  0  0  0  0  0  0  0
   -1.1687    7.3547   -2.9408 H   0  0  0  0  0  0  0  0  0  0  0  0
   -2.0286    8.7093   -3.7486 H   0  0  0  0  0  0  0  0  0  0  0  0
   -0.2330    8.6580   -3.7486 H   0  0  0  0  0  0  0  0  0  0  0  0
    2.9160   11.3307    0.9573 H   0  0  0  0  0  0  0  0  0  0  0  0
    2.7488   10.4117   -0.5770 H   0  0  0  0  0  0  0  0  0  0  0  0
    3.5433   12.0228   -0.5770 H   0  0  0  0  0  0  0  0  0  0  0  0
    0.6550   12.4607    1.6411 H   0  0  0  0  0  0  0  0  0  0  0  0
    2.0965   13.4814    1.0793 H   0  0  0  0  0  0  0  0  0  0  0  0
   -0.8367   13.9265    0.4614 H   0  0  0  0  0  0  0  0  0  0  0  0
    0.2783   14.9542    1.4451 H   0  0  0  0  0  0  0  0  0  0  0  0
    2.2683   15.6469    0.6440 H   0  0  0  0  0  0  0  0  0  0  0  0
    2.8087   14.8909   -0.8932 H   0  0  0  0  0  0  0  0  0  0  0  0
    2.1739   16.5713   -0.8932 H   0  0  0  0  0  0  0  0  0  0  0  0
  1  2  1  0
  2  3  1  0
  3  4  1  0
  4  5  1  0
  5  6  1  0
  6  7  1  0
  7  8  1  0
  7  9  1  0
  2 10  1  0
 10 11  1  0
 11 12  1  0
 12 13  1  0
 13 14  1  6
 13 15  1  0
 15 16  1  0
 16 17  1  0
 17 18  2  0
 18 19  1  0
 19 20  1  0
 20 21  1  0
 21 22  1  0
 22 23  1  0
 22 24  1  0
 24 25  1  0
 24 26  1  0
 19 27  1  0
 27 28  1  1
 27 29  1  0
 29 30  1  0
 30 31  1  0
 31 32  1  1
  7  5  1  0
 31 10  1  0
 31 13  1  0
 27 15  1  0
 24 18  1  0
  1 33  1  0
  1 34  1  0
  1 35  1  0
  2 36  1  1
  3 37  1  0
  3 38  1  0
  4 39  1  0
  4 40  1  0
  5 41  1  6
  8 42  1  0
  8 43  1  0
  8 44  1  0
  9 45  1  0
  9 46  1  0
  9 47  1  0
 10 48  1  6
 11 49  1  0
 11 50  1  0
 12 51  1  0
 12 52  1  0
 14 53  1  0
 14 54  1  0
 14 55  1  0
 15 56  1  1
 16 57  1  0
 16 58  1  0
 17 59  1  0
 19 60  1  1
 20 61  1  0
 20 62  1  0
 21 63  1  0
 21 64  1  0
 22 65  1  1
 23 66  1  0
 25 67  1  0
 25 68  1  0
 25 69  1  0
 26 70  1  0
 26 71  1  0
 26 72  1  0
 28 73  1  0
 28 74  1  0
 28 75  1  0
 29 76  1  0
 29 77  1  0
 30 78  1  0
 30 79  1  0
 32 80  1  0
 32 81  1  0
 32 82  1  0
M  END
>  <meeko>  (11) 
{"is_sidechain": [false], "intermolecular_energy": 2.731, "internal_energy": -0.839}

$$$$
EPH_relaxed_0001_pdb2pqr_Repair_167_r2_0001_out
     RDKit          3D

 82 86  0  0  0  0  0  0  0  0999 V2000
   -5.1250    6.3620   -3.6290 C   0  0  0  0  0  0  0  0  0  0  0  0
   -5.9070    7.4170   -2.8430 C   0  0  2  0  0  0  0  0  0  0  0  0
   -5.2260    7.7670   -1.5040 C   0  0  0  0  0  0  0  0  0  0  0  0
   -3.7010    7.8570   -1.5950 C   0  0  0  0  0  0  0  0  0  0  0  0
   -3.1390    8.7940   -0.5690 C   0  0  2  0  0  0  0  0  0  0  0  0
   -3.1020   10.1700   -0.9710 O   0  0  0  0  0  0  0  0  0  0  0  0
   -1.8300    9.5410   -0.7450 C   0  0  0  0  0  0  0  0  0  0  0  0
   -1.0020    9.3830   -1.9810 C   0  0  0  0  0  0  0  0  0  0  0  0
   -1.1200   10.0380    0.4760 C   0  0  0  0  0  0  0  0  0  0  0  0
   -7.3300    6.9300   -2.5920 C   0  0  1  0  0  0  0  0  0  0  0  0
   -7.4700    5.3920   -2.7450 C   0  0  0  0  0  0  0  0  0  0  0  0
   -8.5190    4.9320   -1.7010 C   0  0  0  0  0  0  0  0  0  0  0  0
   -9.1860    6.2410   -1.2150 C   0  0  1  0  0  0  0  0  0  0  0  0
  -10.2420    6.5840   -2.3120 C   0  0  0  0  0  0  0  0  0  0  0  0
   -9.8250    6.2030    0.2110 C   0  0  2  0  0  0  0  0  0  0  0  0
  -10.9880    5.2090    0.3780 C   0  0  0  0  0  0  0  0  0  0  0  0
  -12.3450    5.7600    0.0910 C   0  0  0  0  0  0  0  0  0  0  0  0
  -12.6530    7.0660   -0.0100 C   0  0  0  0  0  0  0  0  0  0  0  0
  -11.6020    8.1480    0.2700 C   0  0  1  0  0  0  0  0  0  0  0  0
  -12.2130    9.2390    1.1880 C   0  0  0  0  0  0  0  0  0  0  0  0
  -13.5090    9.8160    0.6280 C   0  0  0  0  0  0  0  0  0  0  0  0
  -14.5490    8.7190    0.4180 C   0  0  2  0  0  0  0  0  0  0  0  0
  -14.9370    8.2020    1.6950 O   0  0  0  0  0  0  0  0  0  0  0  0
  -14.0430    7.5590   -0.4840 C   0  0  0  0  0  0  0  0  0  0  0  0
  -13.9100    8.0550   -1.9450 C   0  0  0  0  0  0  0  0  0  0  0  0
  -15.1340    6.4550   -0.4990 C   0  0  0  0  0  0  0  0  0  0  0  0
  -10.1940    7.6270    0.7940 C   0  0  1  0  0  0  0  0  0  0  0  0
  -10.2260    7.4780    2.3460 C   0  0  0  0  0  0  0  0  0  0  0  0
   -9.0950    8.7080    0.4740 C   0  0  0  0  0  0  0  0  0  0  0  0
   -8.4150    8.6200   -0.9060 C   0  0  0  0  0  0  0  0  0  0  0  0
   -7.9350    7.1930   -1.1910 C   0  0  2  0  0  0  0  0  0  0  0  0
   -6.8550    6.8290   -0.1160 C   0  0  0  0  0  0  0  0  0  0  0  0
   -4.6205    5.6814   -2.9274 H   0  0  0  0  0  0  0  0  0  0  0  0
   -5.8178    5.7884   -4.2622 H   0  0  0  0  0  0  0  0  0  0  0  0
   -4.3747    6.8580   -4.2622 H   0  0  0  0  0  0  0  0  0  0  0  0
   -5.9295    8.3332   -3.4514 H   0  0  0  0  0  0  0  0  0  0  0  0
   -5.6115    8.7387   -1.1618 H   0  0  0  0  0  0  0  0  0  0  0  0
   -5.4589    6.9526   -0.8022 H   0  0  0  0  0  0  0  0  0  0  0  0
   -3.2746    6.8557   -1.4350 H   0  0  0  0  0  0  0  0  0  0  0  0
   -3.4390    8.2423   -2.5915 H   0  0  0  0  0  0  0  0  0  0  0  0
   -3.5274    8.1688    0.2485 H   0  0  0  0  0  0  0  0  0  0  0  0
    0.0425    9.1837   -1.6996 H   0  0  0  0  0  0  0  0  0  0  0  0
   -1.3882    8.5423   -2.5761 H   0  0  0  0  0  0  0  0  0  0  0  0
   -1.0515   10.3068   -2.5761 H   0  0  0  0  0  0  0  0  0  0  0  0
   -1.6390    9.6747    1.3753 H   0  0  0  0  0  0  0  0  0  0  0  0
   -0.0847    9.6664    0.4749 H   0  0  0  0  0  0  0  0  0  0  0  0
   -1.1148   11.1380    0.4749 H   0  0  0  0  0  0  0  0  0  0  0  0
   -7.8641    7.5225   -3.3495 H   0  0  0  0  0  0  0  0  0  0  0  0
   -7.8113    5.1419   -3.7604 H   0  0  0  0  0  0  0  0  0  0  0  0
   -6.5050    4.8897   -2.5827 H   0  0  0  0  0  0  0  0  0  0  0  0
   -9.2621    4.2664   -2.1644 H   0  0  0  0  0  0  0  0  0  0  0  0
   -8.0649    4.3639   -0.8758 H   0  0  0  0  0  0  0  0  0  0  0  0
  -11.1833    6.8897   -1.8320 H   0  0  0  0  0  0  0  0  0  0  0  0
   -9.8660    7.4062   -2.9386 H   0  0  0  0  0  0  0  0  0  0  0  0
  -10.4209    5.6978   -2.9386 H   0  0  0  0  0  0  0  0  0  0  0  0
   -9.0036    5.8089    0.8274 H   0  0  0  0  0  0  0  0  0  0  0  0
  -10.8132    4.3640   -0.3042 H   0  0  0  0  0  0  0  0  0  0  0  0
  -10.9941    4.9242    1.4405 H   0  0  0  0  0  0  0  0  0  0  0  0
  -13.1624    5.0375   -0.0499 H   0  0  0  0  0  0  0  0  0  0  0  0
  -11.3462    8.5839   -0.7070 H   0  0  0  0  0  0  0  0  0  0  0  0
  -12.4211    8.7952    2.1727 H   0  0  0  0  0  0  0  0  0  0  0  0
  -11.4853   10.0608    1.2599 H   0  0  0  0  0  0  0  0  0  0  0  0
  -13.9072   10.5589    1.3348 H   0  0  0  0  0  0  0  0  0  0  0  0
  -13.2933   10.2856   -0.3431 H   0  0  0  0  0  0  0  0  0  0  0  0
  -15.4048    9.1711   -0.1046 H   0  0  0  0  0  0  0  0  0  0  0  0
  -15.9070    8.1410    1.7050 H   0  0  0  0  0  0  0  0  0  0  0  0
  -13.6251    9.1175   -1.9470 H   0  0  0  0  0  0  0  0  0  0  0  0
  -13.1377    7.4673   -2.4629 H   0  0  0  0  0  0  0  0  0  0  0  0
  -14.8727    7.9325   -2.4629 H   0  0  0  0  0  0  0  0  0  0  0  0
  -15.3988    6.1871    0.5345 H   0  0  0  0  0  0  0  0  0  0  0  0
  -16.0270    6.8291   -1.0211 H   0  0  0  0  0  0  0  0  0  0  0  0
  -14.7494    5.5665   -1.0211 H   0  0  0  0  0  0  0  0  0  0  0  0
  -10.0168    8.4521    2.8123 H   0  0  0  0  0  0  0  0  0  0  0  0
  -11.2200    7.1270    2.6602 H   0  0  0  0  0  0  0  0  0  0  0  0
   -9.4638    6.7498    2.6602 H   0  0  0  0  0  0  0  0  0  0  0  0
   -9.5698    9.6975    0.5485 H   0  0  0  0  0  0  0  0  0  0  0  0
   -8.2915    8.5262    1.2029 H   0  0  0  0  0  0  0  0  0  0  0  0
   -9.1352    8.9190   -1.6818 H   0  0  0  0  0  0  0  0  0  0  0  0
   -7.5432    9.2908   -0.9108 H   0  0  0  0  0  0  0  0  0  0  0  0
   -7.2766    6.9711    0.8900 H   0  0  0  0  0  0  0  0  0  0  0  0
   -6.5519    5.7791   -0.2416 H   0  0  0  0  0  0  0  0  0  0  0  0
   -5.9782    7.4813   -0.2416 H   0  0  0  0  0  0  0  0  0  0  0  0
  1  2  1  0
  2  3  1  0
  3  4  1  0
  4  5  1  0
  5  6  1  0
  6  7  1  0
  7  8  1  0
  7  9  1  0
  2 10  1  0
 10 11  1  0
 11 12  1  0
 12 13  1  0
 13 14  1  6
 13 15  1  0
 15 16  1  0
 16 17  1  0
 17 18  2  0
 18 19  1  0
 19 20  1  0
 20 21  1  0
 21 22  1  0
 22 23  1  0
 22 24  1  0
 24 25  1  0
 24 26  1  0
 19 27  1  0
 27 28  1  1
 27 29  1  0
 29 30  1  0
 30 31  1  0
 31 32  1  1
  7  5  1  0
 31 10  1  0
 31 13  1  0
 27 15  1  0
 24 18  1  0
  1 33  1  0
  1 34  1  0
  1 35  1  0
  2 36  1  6
  3 37  1  0
  3 38  1  0
  4 39  1  0
  4 40  1  0
  5 41  1  1
  8 42  1  0
  8 43  1  0
  8 44  1  0
  9 45  1  0
  9 46  1  0
  9 47  1  0
 10 48  1  6
 11 49  1  0
 11 50  1  0
 12 51  1  0
 12 52  1  0
 14 53  1  0
 14 54  1  0
 14 55  1  0
 15 56  1  1
 16 57  1  0
 16 58  1  0
 17 59  1  0
 19 60  1  6
 20 61  1  0
 20 62  1  0
 21 63  1  0
 21 64  1  0
 22 65  1  6
 23 66  1  0
 25 67  1  0
 25 68  1  0
 25 69  1  0
 26 70  1  0
 26 71  1  0
 26 72  1  0
 28 73  1  0
 28 74  1  0
 28 75  1  0
 29 76  1  0
 29 77  1  0
 30 78  1  0
 30 79  1  0
 32 80  1  0
 32 81  1  0
 32 82  1  0
M  END
>  <meeko>  (12) 
{"is_sidechain": [false], "intermolecular_energy": 2.731, "internal_energy": -0.839}

$$$$
EPH_relaxed_0001_pdb2pqr_Repair_167_r2_0001_out
     RDKit          3D

 82 86  0  0  0  0  0  0  0  0999 V2000
  -14.6430    9.3900    0.8740 C   0  0  0  0  0  0  0  0  0  0  0  0
  -13.8260    9.1620   -0.4000 C   0  0  2  0  0  0  0  0  0  0  0  0
  -14.3370    7.9530   -1.2090 C   0  0  0  0  0  0  0  0  0  0  0  0
  -15.2870    8.3320   -2.3480 C   0  0  0  0  0  0  0  0  0  0  0  0
  -15.1060    7.4430   -3.5410 C   0  0  2  0  0  0  0  0  0  0  0  0
  -13.8300    7.5580   -4.1850 O   0  0  0  0  0  0  0  0  0  0  0  0
  -14.9700    7.9640   -4.9590 C   0  0  0  0  0  0  0  0  0  0  0  0
  -15.0110    9.4290   -5.2600 C   0  0  0  0  0  0  0  0  0  0  0  0
  -15.2870    7.0400   -6.0940 C   0  0  0  0  0  0  0  0  0  0  0  0
  -12.3560    8.9680   -0.0470 C   0  0  1  0  0  0  0  0  0  0  0  0
  -12.1240    8.8130    1.4800 C   0  0  0  0  0  0  0  0  0  0  0  0
  -10.9520    7.8130    1.6550 C   0  0  0  0  0  0  0  0  0  0  0  0
  -10.3350    7.6840    0.2430 C   0  0  1  0  0  0  0  0  0  0  0  0
   -9.4120    8.9330    0.0910 C   0  0  0  0  0  0  0  0  0  0  0  0
   -9.5640    6.3570   -0.0550 C   0  0  2  0  0  0  0  0  0  0  0  0
   -8.3250    6.1110    0.8230 C   0  0  0  0  0  0  0  0  0  0  0  0
   -7.0420    6.6490    0.2810 C   0  0  0  0  0  0  0  0  0  0  0  0
   -6.8360    7.0500   -0.9870 C   0  0  0  0  0  0  0  0  0  0  0  0
   -7.9290    6.8910   -2.0510 C   0  0  1  0  0  0  0  0  0  0  0  0
   -7.3120    6.2890   -3.3410 C   0  0  0  0  0  0  0  0  0  0  0  0
   -6.1180    7.0920   -3.8480 C   0  0  0  0  0  0  0  0  0  0  0  0
   -5.0280    7.1780   -2.7820 C   0  0  2  0  0  0  0  0  0  0  0  0
   -4.4870    5.8710   -2.5690 O   0  0  0  0  0  0  0  0  0  0  0  0
   -5.5350    7.7610   -1.4330 C   0  0  0  0  0  0  0  0  0  0  0  0
   -5.8380    9.2710   -1.6000 C   0  0  0  0  0  0  0  0  0  0  0  0
   -4.3750    7.6620   -0.4050 C   0  0  0  0  0  0  0  0  0  0  0  0
   -9.2420    6.1240   -1.5870 C   0  0  1  0  0  0  0  0  0  0  0  0
   -9.0550    4.5880   -1.7750 C   0  0  0  0  0  0  0  0  0  0  0  0
  -10.4390    6.5430   -2.5210 C   0  0  0  0  0  0  0  0  0  0  0  0
  -11.2370    7.7940   -2.1080 C   0  0  0  0  0  0  0  0  0  0  0  0
  -11.6410    7.7240   -0.6320 C   0  0  2  0  0  0  0  0  0  0  0  0
  -12.5890    6.4890   -0.4530 C   0  0  0  0  0  0  0  0  0  0  0  0
  -14.0072    9.2126    1.7540 H   0  0  0  0  0  0  0  0  0  0  0  0
  -15.0131   10.4257    0.8918 H   0  0  0  0  0  0  0  0  0  0  0  0
  -15.4959    8.6956    0.8918 H   0  0  0  0  0  0  0  0  0  0  0  0
  -13.9422   10.0550   -1.0317 H   0  0  0  0  0  0  0  0  0  0  0  0
  -13.4694    7.4314   -1.6394 H   0  0  0  0  0  0  0  0  0  0  0  0
  -14.9058    7.3182   -0.5137 H   0  0  0  0  0  0  0  0  0  0  0  0
  -16.3239    8.2433   -1.9916 H   0  0  0  0  0  0  0  0  0  0  0  0
  -15.0614    9.3645   -2.6529 H   0  0  0  0  0  0  0  0  0  0  0  0
  -15.7552    6.6743   -3.0965 H   0  0  0  0  0  0  0  0  0  0  0  0
  -15.0269    9.9966   -4.3179 H   0  0  0  0  0  0  0  0  0  0  0  0
  -14.1203    9.7089   -5.8417 H   0  0  0  0  0  0  0  0  0  0  0  0
  -15.9159    9.6586   -5.8417 H   0  0  0  0  0  0  0  0  0  0  0  0
  -15.6197    6.0703   -5.6954 H   0  0  0  0  0  0  0  0  0  0  0  0
  -16.0866    7.4770   -6.7102 H   0  0  0  0  0  0  0  0  0  0  0  0
  -14.3875    6.8941   -6.7102 H   0  0  0  0  0  0  0  0  0  0  0  0
  -11.9382    9.8843   -0.4896 H   0  0  0  0  0  0  0  0  0  0  0  0
  -11.8623    9.7848    1.9240 H   0  0  0  0  0  0  0  0  0  0  0  0
  -13.0322    8.4490    1.9826 H   0  0  0  0  0  0  0  0  0  0  0  0
  -10.2113    8.2038    2.3682 H   0  0  0  0  0  0  0  0  0  0  0  0
  -11.2865    6.8441    2.0541 H   0  0  0  0  0  0  0  0  0  0  0  0
   -9.1351    9.3077    1.0874 H   0  0  0  0  0  0  0  0  0  0  0  0
   -8.5028    8.6521   -0.4608 H   0  0  0  0  0  0  0  0  0  0  0  0
   -9.9475    9.7196   -0.4608 H   0  0  0  0  0  0  0  0  0  0  0  0
  -10.2951    5.5891    0.2379 H   0  0  0  0  0  0  0  0  0  0  0  0
   -8.5036    6.5799    1.8019 H   0  0  0  0  0  0  0  0  0  0  0  0
   -8.1999    5.0193    0.8736 H   0  0  0  0  0  0  0  0  0  0  0  0
   -6.1934    6.7239    0.9769 H   0  0  0  0  0  0  0  0  0  0  0  0
   -8.3050    7.9045   -2.2548 H   0  0  0  0  0  0  0  0  0  0  0  0
   -6.9812    5.2619   -3.1276 H   0  0  0  0  0  0  0  0  0  0  0  0
   -8.0855    6.3109   -4.1228 H   0  0  0  0  0  0  0  0  0  0  0  0
   -5.7083    6.6019   -4.7435 H   0  0  0  0  0  0  0  0  0  0  0  0
   -6.4559    8.1108   -4.0887 H   0  0  0  0  0  0  0  0  0  0  0  0
   -4.2579    7.8704   -3.1528 H   0  0  0  0  0  0  0  0  0  0  0  0
   -4.2370    5.5110   -3.4360 H   0  0  0  0  0  0  0  0  0  0  0  0
   -5.9317    9.7380   -0.6085 H   0  0  0  0  0  0  0  0  0  0  0  0
   -5.0181    9.7503   -2.1551 H   0  0  0  0  0  0  0  0  0  0  0  0
   -6.7793    9.3969   -2.1551 H   0  0  0  0  0  0  0  0  0  0  0  0
   -4.7851    7.6970    0.6151 H   0  0  0  0  0  0  0  0  0  0  0  0
   -3.8355    6.7145   -0.5510 H   0  0  0  0  0  0  0  0  0  0  0  0
   -3.6828    8.5043   -0.5510 H   0  0  0  0  0  0  0  0  0  0  0  0
   -8.9959    4.1025   -0.7897 H   0  0  0  0  0  0  0  0  0  0  0  0
   -9.9101    4.1802   -2.3340 H   0  0  0  0  0  0  0  0  0  0  0  0
   -8.1270    4.3973   -2.3340 H   0  0  0  0  0  0  0  0  0  0  0  0
  -10.0292    6.7262   -3.5252 H   0  0  0  0  0  0  0  0  0  0  0  0
  -11.1562    5.7111   -2.4605 H   0  0  0  0  0  0  0  0  0  0  0  0
  -10.6151    8.6869   -2.2689 H   0  0  0  0  0  0  0  0  0  0  0  0
  -12.1499    7.8454   -2.7195 H   0  0  0  0  0  0  0  0  0  0  0  0
  -12.7387    6.2940    0.6192 H   0  0  0  0  0  0  0  0  0  0  0  0
  -13.5593    6.6999   -0.9263 H   0  0  0  0  0  0  0  0  0  0  0  0
  -12.1344    5.6062   -0.9263 H   0  0  0  0  0  0  0  0  0  0  0  0
  1  2  1  0
  2  3  1  0
  3  4  1  0
  4  5  1  0
  5  6  1  0
  6  7  1  0
  7  8  1  0
  7  9  1  0
  2 10  1  0
 10 11  1  0
 11 12  1  0
 12 13  1  0
 13 14  1  6
 13 15  1  0
 15 16  1  0
 16 17  1  0
 17 18  2  0
 18 19  1  0
 19 20  1  0
 20 21  1  0
 21 22  1  0
 22 23  1  0
 22 24  1  0
 24 25  1  0
 24 26  1  0
 19 27  1  0
 27 28  1  1
 27 29  1  0
 29 30  1  0
 30 31  1  0
 31 32  1  6
  7  5  1  0
 31 10  1  0
 31 13  1  0
 27 15  1  0
 24 18  1  0
  1 33  1  0
  1 34  1  0
  1 35  1  0
  2 36  1  6
  3 37  1  0
  3 38  1  0
  4 39  1  0
  4 40  1  0
  5 41  1  6
  8 42  1  0
  8 43  1  0
  8 44  1  0
  9 45  1  0
  9 46  1  0
  9 47  1  0
 10 48  1  6
 11 49  1  0
 11 50  1  0
 12 51  1  0
 12 52  1  0
 14 53  1  0
 14 54  1  0
 14 55  1  0
 15 56  1  1
 16 57  1  0
 16 58  1  0
 17 59  1  0
 19 60  1  6
 20 61  1  0
 20 62  1  0
 21 63  1  0
 21 64  1  0
 22 65  1  6
 23 66  1  0
 25 67  1  0
 25 68  1  0
 25 69  1  0
 26 70  1  0
 26 71  1  0
 26 72  1  0
 28 73  1  0
 28 74  1  0
 28 75  1  0
 29 76  1  0
 29 77  1  0
 30 78  1  0
 30 79  1  0
 32 80  1  0
 32 81  1  0
 32 82  1  0
M  END
>  <meeko>  (13) 
{"is_sidechain": [false], "intermolecular_energy": 2.731, "internal_energy": -0.839}

$$$$
EPH_relaxed_0001_pdb2pqr_Repair_167_r2_0001_out
     RDKit          3D

 82 86  0  0  0  0  0  0  0  0999 V2000
    1.2330   16.9060    0.2110 C   0  0  0  0  0  0  0  0  0  0  0  0
    0.9830   16.9930   -1.2980 C   0  0  2  0  0  0  0  0  0  0  0  0
    0.0940   18.1960   -1.6710 C   0  0  0  0  0  0  0  0  0  0  0  0
    0.4060   19.4630   -0.8710 C   0  0  0  0  0  0  0  0  0  0  0  0
   -0.8450   20.1670   -0.4380 C   0  0  2  0  0  0  0  0  0  0  0  0
   -1.0560   20.1940    0.9800 O   0  0  0  0  0  0  0  0  0  0  0  0
   -2.0210   19.4600    0.2090 C   0  0  0  0  0  0  0  0  0  0  0  0
   -2.0040   17.9840    0.4570 C   0  0  0  0  0  0  0  0  0  0  0  0
   -3.3680   20.1120    0.1500 C   0  0  0  0  0  0  0  0  0  0  0  0
    0.3460   15.7000   -1.7940 C   0  0  1  0  0  0  0  0  0  0  0  0
   -0.1170   15.7920   -3.2720 C   0  0  0  0  0  0  0  0  0  0  0  0
    0.1080   14.3920   -3.8990 C   0  0  0  0  0  0  0  0  0  0  0  0
    0.3750   13.4620   -2.6920 C   0  0  1  0  0  0  0  0  0  0  0  0
   -1.0400   13.1210   -2.1280 C   0  0  0  0  0  0  0  0  0  0  0  0
    1.2060   12.1710   -2.9850 C   0  0  2  0  0  0  0  0  0  0  0  0
    0.5540   11.1840   -3.9690 C   0  0  0  0  0  0  0  0  0  0  0  0
   -0.3170   10.1440   -3.3460 C   0  0  0  0  0  0  0  0  0  0  0  0
   -0.3430    9.8270   -2.0390 C   0  0  0  0  0  0  0  0  0  0  0  0
    0.6350   10.4760   -1.0510 C   0  0  1  0  0  0  0  0  0  0  0  0
    1.2530    9.3830   -0.1400 C   0  0  0  0  0  0  0  0  0  0  0  0
    0.1940    8.5360    0.5590 C   0  0  0  0  0  0  0  0  0  0  0  0
   -0.7230    7.8610   -0.4580 C   0  0  2  0  0  0  0  0  0  0  0  0
    0.0380    6.9010   -1.1980 O   0  0  0  0  0  0  0  0  0  0  0  0
   -1.3960    8.8630   -1.4370 C   0  0  0  0  0  0  0  0  0  0  0  0
   -2.4490    9.7070   -0.6770 C   0  0  0  0  0  0  0  0  0  0  0  0
   -2.1800    8.0420   -2.4960 C   0  0  0  0  0  0  0  0  0  0  0  0
    1.7330   11.4310   -1.6890 C   0  0  1  0  0  0  0  0  0  0  0  0
    2.9750   10.5960   -2.1270 C   0  0  0  0  0  0  0  0  0  0  0  0
    2.2400   12.4380   -0.5900 C   0  0  0  0  0  0  0  0  0  0  0  0
    1.4480   13.7500   -0.4310 C   0  0  0  0  0  0  0  0  0  0  0  0
    1.2270   14.4250   -1.7870 C   0  0  2  0  0  0  0  0  0  0  0  0
    2.6320   14.8000   -2.3700 C   0  0  0  0  0  0  0  0  0  0  0  0
    0.3281   17.2209    0.7513 H   0  0  0  0  0  0  0  0  0  0  0  0
    1.4800   15.8691    0.4826 H   0  0  0  0  0  0  0  0  0  0  0  0
    2.0704   17.5656    0.4826 H   0  0  0  0  0  0  0  0  0  0  0  0
    1.9572   17.1391   -1.7874 H   0  0  0  0  0  0  0  0  0  0  0  0
    0.2373   18.4157   -2.7393 H   0  0  0  0  0  0  0  0  0  0  0  0
   -0.9431   17.9145   -1.4358 H   0  0  0  0  0  0  0  0  0  0  0  0
    0.9870   19.1872    0.0214 H   0  0  0  0  0  0  0  0  0  0  0  0
    0.9773   20.1452   -1.5177 H   0  0  0  0  0  0  0  0  0  0  0  0
   -0.7785   20.8600   -1.2897 H   0  0  0  0  0  0  0  0  0  0  0  0
   -2.0018   17.7943    1.5405 H   0  0  0  0  0  0  0  0  0  0  0  0
   -2.8969   17.5262    0.0064 H   0  0  0  0  0  0  0  0  0  0  0  0
   -1.1008   17.5469    0.0064 H   0  0  0  0  0  0  0  0  0  0  0  0
   -3.7346   20.2894    1.1718 H   0  0  0  0  0  0  0  0  0  0  0  0
   -3.2881   21.0711   -0.3826 H   0  0  0  0  0  0  0  0  0  0  0  0
   -4.0707   19.4543   -0.3826 H   0  0  0  0  0  0  0  0  0  0  0  0
   -0.4661   15.5999   -1.0589 H   0  0  0  0  0  0  0  0  0  0  0  0
   -1.1825   16.0614   -3.3191 H   0  0  0  0  0  0  0  0  0  0  0  0
    0.4478   16.5637   -3.8156 H   0  0  0  0  0  0  0  0  0  0  0  0
   -0.7859   14.0654   -4.4506 H   0  0  0  0  0  0  0  0  0  0  0  0
    0.9378   14.3869   -4.6211 H   0  0  0  0  0  0  0  0  0  0  0  0
   -1.0081   13.1287   -1.0285 H   0  0  0  0  0  0  0  0  0  0  0  0
   -1.7649   13.8702   -2.4790 H   0  0  0  0  0  0  0  0  0  0  0  0
   -1.3441   12.1239   -2.4790 H   0  0  0  0  0  0  0  0  0  0  0  0
    2.0884   12.5723   -3.5050 H   0  0  0  0  0  0  0  0  0  0  0  0
   -0.0597   11.7631   -4.6747 H   0  0  0  0  0  0  0  0  0  0  0  0
    1.3817   10.6405   -4.4480 H   0  0  0  0  0  0  0  0  0  0  0  0
   -0.9949    9.5900   -4.0120 H   0  0  0  0  0  0  0  0  0  0  0  0
    0.0372   11.1725   -0.4448 H   0  0  0  0  0  0  0  0  0  0  0  0
    1.8811    8.7236   -0.7570 H   0  0  0  0  0  0  0  0  0  0  0  0
    1.8414    9.8908    0.6384 H   0  0  0  0  0  0  0  0  0  0  0  0
    0.6920    7.7634    1.1632 H   0  0  0  0  0  0  0  0  0  0  0  0
   -0.4141    9.1920    1.1992 H   0  0  0  0  0  0  0  0  0  0  0  0
   -1.5369    7.3768    0.1016 H   0  0  0  0  0  0  0  0  0  0  0  0
    0.7360    6.5640   -0.6120 H   0  0  0  0  0  0  0  0  0  0  0  0
   -2.3012    9.5885    0.4066 H   0  0  0  0  0  0  0  0  0  0  0  0
   -2.3351   10.7668   -0.9489 H   0  0  0  0  0  0  0  0  0  0  0  0
   -3.4586    9.3651   -0.9489 H   0  0  0  0  0  0  0  0  0  0  0  0
   -2.8537    7.3365   -1.9878 H   0  0  0  0  0  0  0  0  0  0  0  0
   -2.7704    8.7242   -3.1253 H   0  0  0  0  0  0  0  0  0  0  0  0
   -1.4713    7.4836   -3.1253 H   0  0  0  0  0  0  0  0  0  0  0  0
    3.5088   10.2371   -1.2346 H   0  0  0  0  0  0  0  0  0  0  0  0
    2.6451    9.7356   -2.7277 H   0  0  0  0  0  0  0  0  0  0  0  0
    3.6473   11.2263   -2.7277 H   0  0  0  0  0  0  0  0  0  0  0  0
    2.2150   11.9150    0.3774 H   0  0  0  0  0  0  0  0  0  0  0  0
    3.2425   12.7456   -0.9223 H   0  0  0  0  0  0  0  0  0  0  0  0
    0.4713   13.5278    0.0237 H   0  0  0  0  0  0  0  0  0  0  0  0
    2.0252   14.4323    0.2103 H   0  0  0  0  0  0  0  0  0  0  0  0
    3.3337   14.9873   -1.5438 H   0  0  0  0  0  0  0  0  0  0  0  0
    3.0060   13.9702   -2.9878 H   0  0  0  0  0  0  0  0  0  0  0  0
    2.5428   15.7058   -2.9878 H   0  0  0  0  0  0  0  0  0  0  0  0
  1  2  1  0
  2  3  1  0
  3  4  1  0
  4  5  1  0
  5  6  1  0
  6  7  1  0
  7  8  1  0
  7  9  1  0
  2 10  1  0
 10 11  1  0
 11 12  1  0
 12 13  1  0
 13 14  1  1
 13 15  1  0
 15 16  1  0
 16 17  1  0
 17 18  2  0
 18 19  1  0
 19 20  1  0
 20 21  1  0
 21 22  1  0
 22 23  1  0
 22 24  1  0
 24 25  1  0
 24 26  1  0
 19 27  1  0
 27 28  1  6
 27 29  1  0
 29 30  1  0
 30 31  1  0
 31 32  1  6
  7  5  1  0
 31 10  1  0
 31 13  1  0
 27 15  1  0
 24 18  1  0
  1 33  1  0
  1 34  1  0
  1 35  1  0
  2 36  1  6
  3 37  1  0
  3 38  1  0
  4 39  1  0
  4 40  1  0
  5 41  1  6
  8 42  1  0
  8 43  1  0
  8 44  1  0
  9 45  1  0
  9 46  1  0
  9 47  1  0
 10 48  1  1
 11 49  1  0
 11 50  1  0
 12 51  1  0
 12 52  1  0
 14 53  1  0
 14 54  1  0
 14 55  1  0
 15 56  1  6
 16 57  1  0
 16 58  1  0
 17 59  1  0
 19 60  1  1
 20 61  1  0
 20 62  1  0
 21 63  1  0
 21 64  1  0
 22 65  1  1
 23 66  1  0
 25 67  1  0
 25 68  1  0
 25 69  1  0
 26 70  1  0
 26 71  1  0
 26 72  1  0
 28 73  1  0
 28 74  1  0
 28 75  1  0
 29 76  1  0
 29 77  1  0
 30 78  1  0
 30 79  1  0
 32 80  1  0
 32 81  1  0
 32 82  1  0
M  END
>  <meeko>  (14) 
{"is_sidechain": [false], "intermolecular_energy": 2.731, "internal_energy": -0.839}

$$$$
EPH_relaxed_0001_pdb2pqr_Repair_167_r2_0001_out
     RDKit          3D

 82 86  0  0  0  0  0  0  0  0999 V2000
    0.6000   14.1760   -3.7690 C   0  0  0  0  0  0  0  0  0  0  0  0
    1.1660   13.3040   -2.6450 C   0  0  2  0  0  0  0  0  0  0  0  0
    2.7070   13.2660   -2.6590 C   0  0  0  0  0  0  0  0  0  0  0  0
    3.2890   12.2820   -3.6780 C   0  0  0  0  0  0  0  0  0  0  0  0
    4.7840   12.2120   -3.5900 C   0  0  2  0  0  0  0  0  0  0  0  0
    5.4710   12.5340   -4.8060 O   0  0  0  0  0  0  0  0  0  0  0  0
    5.6180   11.1860   -4.3330 C   0  0  0  0  0  0  0  0  0  0  0  0
    4.9850   10.1570   -5.2170 C   0  0  0  0  0  0  0  0  0  0  0  0
    6.9900   10.8730   -3.8210 C   0  0  0  0  0  0  0  0  0  0  0  0
    0.6090   11.8890   -2.7540 C   0  0  1  0  0  0  0  0  0  0  0  0
    1.7210   10.8060   -2.7400 C   0  0  0  0  0  0  0  0  0  0  0  0
    1.1410    9.5790   -1.9920 C   0  0  0  0  0  0  0  0  0  0  0  0
   -0.3770    9.8630   -1.8940 C   0  0  1  0  0  0  0  0  0  0  0  0
   -0.9530    9.4470   -3.2840 C   0  0  0  0  0  0  0  0  0  0  0  0
   -1.1370    9.1630   -0.7210 C   0  0  2  0  0  0  0  0  0  0  0  0
   -1.1340    7.6250   -0.7680 C   0  0  0  0  0  0  0  0  0  0  0  0
   -2.2770    7.0080   -1.5040 C   0  0  0  0  0  0  0  0  0  0  0  0
   -3.4120    7.6390   -1.8580 C   0  0  0  0  0  0  0  0  0  0  0  0
   -3.6730    9.0890   -1.4300 C   0  0  1  0  0  0  0  0  0  0  0  0
   -5.1170    9.2140   -0.8780 C   0  0  0  0  0  0  0  0  0  0  0  0
   -6.1650    8.6970   -1.8580 C   0  0  0  0  0  0  0  0  0  0  0  0
   -5.9060    7.2360   -2.2140 C   0  0  2  0  0  0  0  0  0  0  0  0
   -6.1140    6.4330   -1.0480 O   0  0  0  0  0  0  0  0  0  0  0  0
   -4.4770    6.9860   -2.7730 C   0  0  0  0  0  0  0  0  0  0  0  0
   -4.3540    7.6100   -4.1850 C   0  0  0  0  0  0  0  0  0  0  0  0
   -4.2980    5.4550   -2.9580 C   0  0  0  0  0  0  0  0  0  0  0  0
   -2.5900    9.7310   -0.4600 C   0  0  1  0  0  0  0  0  0  0  0  0
   -2.9390    9.3960    1.0230 C   0  0  0  0  0  0  0  0  0  0  0  0
   -2.6510   11.2990   -0.5860 C   0  0  0  0  0  0  0  0  0  0  0  0
   -1.7860   11.9410   -1.6870 C   0  0  0  0  0  0  0  0  0  0  0  0
   -0.3490   11.4130   -1.6340 C   0  0  2  0  0  0  0  0  0  0  0  0
    0.2640   11.8360   -0.2550 C   0  0  0  0  0  0  0  0  0  0  0  0
    0.0499   15.0235   -3.3340 H   0  0  0  0  0  0  0  0  0  0  0  0
    1.4251   14.5545   -4.3903 H   0  0  0  0  0  0  0  0  0  0  0  0
   -0.0816   13.5765   -4.3903 H   0  0  0  0  0  0  0  0  0  0  0  0
    0.8558   13.7532   -1.6900 H   0  0  0  0  0  0  0  0  0  0  0  0
    3.0771   14.2737   -2.8987 H   0  0  0  0  0  0  0  0  0  0  0  0
    3.0294   12.9264   -1.6636 H   0  0  0  0  0  0  0  0  0  0  0  0
    2.8734   11.2819   -3.4854 H   0  0  0  0  0  0  0  0  0  0  0  0
    3.0209   12.6330   -4.6854 H   0  0  0  0  0  0  0  0  0  0  0  0
    4.7598   12.5183   -2.5338 H   0  0  0  0  0  0  0  0  0  0  0  0
    4.5091    9.3833   -4.5966 H   0  0  0  0  0  0  0  0  0  0  0  0
    4.2254   10.6364   -5.8520 H   0  0  0  0  0  0  0  0  0  0  0  0
    5.7554    9.6952   -5.8520 H   0  0  0  0  0  0  0  0  0  0  0  0
    6.9802   10.8752   -2.7210 H   0  0  0  0  0  0  0  0  0  0  0  0
    7.2990    9.8813   -4.1829 H   0  0  0  0  0  0  0  0  0  0  0  0
    7.6986   11.6326   -4.1829 H   0  0  0  0  0  0  0  0  0  0  0  0
    0.0616   11.9799   -3.7038 H   0  0  0  0  0  0  0  0  0  0  0  0
    1.9925   10.5286   -3.7692 H   0  0  0  0  0  0  0  0  0  0  0  0
    2.6288   11.1786   -2.2430 H   0  0  0  0  0  0  0  0  0  0  0  0
    1.3273    8.6549   -2.5589 H   0  0  0  0  0  0  0  0  0  0  0  0
    1.6032    9.4360   -1.0041 H   0  0  0  0  0  0  0  0  0  0  0  0
   -1.8369    8.8086   -3.1385 H   0  0  0  0  0  0  0  0  0  0  0  0
   -1.2398   10.3477   -3.8465 H   0  0  0  0  0  0  0  0  0  0  0  0
   -0.1881    8.8915   -3.8465 H   0  0  0  0  0  0  0  0  0  0  0  0
   -0.5266    9.4362    0.1524 H   0  0  0  0  0  0  0  0  0  0  0  0
   -0.2020    7.3015   -1.2545 H   0  0  0  0  0  0  0  0  0  0  0  0
   -1.2259    7.2882    0.2751 H   0  0  0  0  0  0  0  0  0  0  0  0
   -2.1837    5.9474   -1.7805 H   0  0  0  0  0  0  0  0  0  0  0  0
   -3.5678    9.6986   -2.3396 H   0  0  0  0  0  0  0  0  0  0  0  0
   -5.1895    8.6343    0.0540 H   0  0  0  0  0  0  0  0  0  0  0  0
   -5.3178   10.2820   -0.7074 H   0  0  0  0  0  0  0  0  0  0  0  0
   -7.1609    8.7845   -1.3992 H   0  0  0  0  0  0  0  0  0  0  0  0
   -6.1110    9.2972   -2.7783 H   0  0  0  0  0  0  0  0  0  0  0  0
   -6.6086    6.9621   -3.0149 H   0  0  0  0  0  0  0  0  0  0  0  0
   -6.9070    5.8920   -1.2010 H   0  0  0  0  0  0  0  0  0  0  0  0
   -4.1420    8.6855   -4.0934 H   0  0  0  0  0  0  0  0  0  0  0  0
   -3.5351    7.1202   -4.7323 H   0  0  0  0  0  0  0  0  0  0  0  0
   -5.2975    7.4676   -4.7323 H   0  0  0  0  0  0  0  0  0  0  0  0
   -4.2414    4.9707   -1.9720 H   0  0  0  0  0  0  0  0  0  0  0  0
   -5.1550    5.0505   -3.5165 H   0  0  0  0  0  0  0  0  0  0  0  0
   -3.3708    5.2591   -3.5165 H   0  0  0  0  0  0  0  0  0  0  0  0
   -2.3097   10.0000    1.6932 H   0  0  0  0  0  0  0  0  0  0  0  0
   -3.9986    9.6238    1.2108 H   0  0  0  0  0  0  0  0  0  0  0  0
   -2.7547    8.3279    1.2108 H   0  0  0  0  0  0  0  0  0  0  0  0
   -3.6974   11.5769   -0.7804 H   0  0  0  0  0  0  0  0  0  0  0  0
   -2.2414   11.6802    0.3611 H   0  0  0  0  0  0  0  0  0  0  0  0
   -2.2202   11.7041   -2.6695 H   0  0  0  0  0  0  0  0  0  0  0  0
   -1.7657   13.0291   -1.5268 H   0  0  0  0  0  0  0  0  0  0  0  0
   -0.3436   11.4167    0.5605 H   0  0  0  0  0  0  0  0  0  0  0  0
    1.2930   11.4549   -0.1788 H   0  0  0  0  0  0  0  0  0  0  0  0
    0.2728   12.9333   -0.1788 H   0  0  0  0  0  0  0  0  0  0  0  0
  1  2  1  0
  2  3  1  0
  3  4  1  0
  4  5  1  0
  5  6  1  0
  6  7  1  0
  7  8  1  0
  7  9  1  0
  2 10  1  0
 10 11  1  0
 11 12  1  0
 12 13  1  0
 13 14  1  6
 13 15  1  0
 15 16  1  0
 16 17  1  0
 17 18  2  0
 18 19  1  0
 19 20  1  0
 20 21  1  0
 21 22  1  0
 22 23  1  0
 22 24  1  0
 24 25  1  0
 24 26  1  0
 19 27  1  0
 27 28  1  1
 27 29  1  0
 29 30  1  0
 30 31  1  0
 31 32  1  1
  7  5  1  0
 31 10  1  0
 31 13  1  0
 27 15  1  0
 24 18  1  0
  1 33  1  0
  1 34  1  0
  1 35  1  0
  2 36  1  1
  3 37  1  0
  3 38  1  0
  4 39  1  0
  4 40  1  0
  5 41  1  1
  8 42  1  0
  8 43  1  0
  8 44  1  0
  9 45  1  0
  9 46  1  0
  9 47  1  0
 10 48  1  6
 11 49  1  0
 11 50  1  0
 12 51  1  0
 12 52  1  0
 14 53  1  0
 14 54  1  0
 14 55  1  0
 15 56  1  1
 16 57  1  0
 16 58  1  0
 17 59  1  0
 19 60  1  6
 20 61  1  0
 20 62  1  0
 21 63  1  0
 21 64  1  0
 22 65  1  6
 23 66  1  0
 25 67  1  0
 25 68  1  0
 25 69  1  0
 26 70  1  0
 26 71  1  0
 26 72  1  0
 28 73  1  0
 28 74  1  0
 28 75  1  0
 29 76  1  0
 29 77  1  0
 30 78  1  0
 30 79  1  0
 32 80  1  0
 32 81  1  0
 32 82  1  0
M  END
>  <meeko>  (15) 
{"is_sidechain": [false], "intermolecular_energy": 2.731, "internal_energy": -0.839}

$$$$
EPH_relaxed_0001_pdb2pqr_Repair_167_r2_0001_out
     RDKit          3D

 82 86  0  0  0  0  0  0  0  0999 V2000
    2.4490   13.7960   -2.0420 C   0  0  0  0  0  0  0  0  0  0  0  0
    1.2010   13.7900   -2.9290 C   0  0  2  0  0  0  0  0  0  0  0  0
    0.0780   14.6780   -2.3570 C   0  0  0  0  0  0  0  0  0  0  0  0
    0.4240   15.3170   -1.0100 C   0  0  0  0  0  0  0  0  0  0  0  0
    0.3990   16.8140   -1.0840 C   0  0  2  0  0  0  0  0  0  0  0  0
    0.8560   17.4790    0.1010 O   0  0  0  0  0  0  0  0  0  0  0  0
   -0.5240   17.6780   -0.2450 C   0  0  0  0  0  0  0  0  0  0  0  0
   -1.4870   17.0730    0.7290 C   0  0  0  0  0  0  0  0  0  0  0  0
   -0.8340   19.0630   -0.7180 C   0  0  0  0  0  0  0  0  0  0  0  0
    0.6980   12.3620   -3.1060 C   0  0  1  0  0  0  0  0  0  0  0  0
    1.8400   11.3600   -3.4210 C   0  0  0  0  0  0  0  0  0  0  0  0
    1.4640   10.0220   -2.7350 C   0  0  0  0  0  0  0  0  0  0  0  0
   -0.0200   10.1930   -2.3340 C   0  0  1  0  0  0  0  0  0  0  0  0
   -0.8250    9.8960   -3.6380 C   0  0  0  0  0  0  0  0  0  0  0  0
   -0.5180    9.3200   -1.1370 C   0  0  2  0  0  0  0  0  0  0  0  0
   -0.4560    7.8000   -1.3680 C   0  0  0  0  0  0  0  0  0  0  0  0
   -1.6860    7.1930   -1.9570 C   0  0  0  0  0  0  0  0  0  0  0  0
   -2.8940    7.7840   -2.0250 C   0  0  0  0  0  0  0  0  0  0  0  0
   -3.1360    9.1580   -1.3860 C   0  0  1  0  0  0  0  0  0  0  0  0
   -4.4570    9.1260   -0.5730 C   0  0  0  0  0  0  0  0  0  0  0  0
   -5.6450    8.6520   -1.4060 C   0  0  0  0  0  0  0  0  0  0  0  0
   -5.3900    7.2590   -1.9760 C   0  0  2  0  0  0  0  0  0  0  0  0
   -5.3430    6.3210   -0.8960 O   0  0  0  0  0  0  0  0  0  0  0  0
   -4.0800    7.1670   -2.8070 C   0  0  0  0  0  0  0  0  0  0  0  0
   -4.2470    7.9490   -4.1320 C   0  0  0  0  0  0  0  0  0  0  0  0
   -3.8700    5.6800   -3.2030 C   0  0  0  0  0  0  0  0  0  0  0  0
   -1.9220    9.7590   -0.5540 C   0  0  1  0  0  0  0  0  0  0  0  0
   -1.9760    9.2400    0.9160 C   0  0  0  0  0  0  0  0  0  0  0  0
   -2.0760   11.3240   -0.4790 C   0  0  0  0  0  0  0  0  0  0  0  0
   -1.4590   12.1390   -1.6310 C   0  0  0  0  0  0  0  0  0  0  0  0
   -0.0150   11.7040   -1.8980 C   0  0  2  0  0  0  0  0  0  0  0  0
    0.8240   12.0120   -0.6110 C   0  0  0  0  0  0  0  0  0  0  0  0
    2.1471   13.7945   -0.9843 H   0  0  0  0  0  0  0  0  0  0  0  0
    3.0526   12.9007   -2.2523 H   0  0  0  0  0  0  0  0  0  0  0  0
    3.0440   14.6970   -2.2523 H   0  0  0  0  0  0  0  0  0  0  0  0
    1.4859   14.2079   -3.9058 H   0  0  0  0  0  0  0  0  0  0  0  0
   -0.1311   15.4813   -3.0788 H   0  0  0  0  0  0  0  0  0  0  0  0
   -0.7926   14.0268   -2.1894 H   0  0  0  0  0  0  0  0  0  0  0  0
   -0.3082   14.9849   -0.2593 H   0  0  0  0  0  0  0  0  0  0  0  0
    1.4416   15.0042   -0.7333 H   0  0  0  0  0  0  0  0  0  0  0  0
    0.6053   16.7878   -2.1642 H   0  0  0  0  0  0  0  0  0  0  0  0
   -1.1516   17.2837    1.7552 H   0  0  0  0  0  0  0  0  0  0  0  0
   -2.4862   17.5059    0.5737 H   0  0  0  0  0  0  0  0  0  0  0  0
   -1.5306   15.9849    0.5737 H   0  0  0  0  0  0  0  0  0  0  0  0
   -0.9816   19.7224    0.1500 H   0  0  0  0  0  0  0  0  0  0  0  0
    0.0023   19.4386   -1.3259 H   0  0  0  0  0  0  0  0  0  0  0  0
   -1.7506   19.0463   -1.3259 H   0  0  0  0  0  0  0  0  0  0  0  0
   -0.0186   12.5201   -3.9254 H   0  0  0  0  0  0  0  0  0  0  0  0
    1.9286   11.2164   -4.5080 H   0  0  0  0  0  0  0  0  0  0  0  0
    2.8064   11.7345   -3.0524 H   0  0  0  0  0  0  0  0  0  0  0  0
    1.5831    9.1806   -3.4334 H   0  0  0  0  0  0  0  0  0  0  0  0
    2.1071    9.8013   -1.8703 H   0  0  0  0  0  0  0  0  0  0  0  0
   -1.8269    9.5264   -3.3742 H   0  0  0  0  0  0  0  0  0  0  0  0
   -0.9186   10.8188   -4.2293 H   0  0  0  0  0  0  0  0  0  0  0  0
   -0.2968    9.1336   -4.2293 H   0  0  0  0  0  0  0  0  0  0  0  0
    0.2311    9.5353   -0.3608 H   0  0  0  0  0  0  0  0  0  0  0  0
    0.3837    7.5937   -2.0480 H   0  0  0  0  0  0  0  0  0  0  0  0
   -0.3396    7.3459   -0.3729 H   0  0  0  0  0  0  0  0  0  0  0  0
   -1.5982    6.1774   -2.3703 H   0  0  0  0  0  0  0  0  0  0  0  0
   -3.2284    9.8692   -2.2201 H   0  0  0  0  0  0  0  0  0  0  0  0
   -4.3297    8.4434    0.2801 H   0  0  0  0  0  0  0  0  0  0  0  0
   -4.6701   10.1529   -0.2412 H   0  0  0  0  0  0  0  0  0  0  0  0
   -6.5418    8.6221   -0.7697 H   0  0  0  0  0  0  0  0  0  0  0  0
   -5.7898    9.3524   -2.2417 H   0  0  0  0  0  0  0  0  0  0  0  0
   -6.2148    7.0287   -2.6664 H   0  0  0  0  0  0  0  0  0  0  0  0
   -5.9860    5.6180   -1.0890 H   0  0  0  0  0  0  0  0  0  0  0  0
   -4.4720    9.0026   -3.9101 H   0  0  0  0  0  0  0  0  0  0  0  0
   -3.3155    7.8877   -4.7139 H   0  0  0  0  0  0  0  0  0  0  0  0
   -5.0722    7.5125   -4.7139 H   0  0  0  0  0  0  0  0  0  0  0  0
   -3.7834    5.0671   -2.2937 H   0  0  0  0  0  0  0  0  0  0  0  0
   -4.7282    5.3343   -3.7979 H   0  0  0  0  0  0  0  0  0  0  0  0
   -2.9496    5.5854   -3.7979 H   0  0  0  0  0  0  0  0  0  0  0  0
   -1.8876   10.0901    1.6085 H   0  0  0  0  0  0  0  0  0  0  0  0
   -2.9326    8.7249    1.0881 H   0  0  0  0  0  0  0  0  0  0  0  0
   -1.1459    8.5390    1.0881 H   0  0  0  0  0  0  0  0  0  0  0  0
   -3.1518   11.5514   -0.4496 H   0  0  0  0  0  0  0  0  0  0  0  0
   -1.5161   11.6254    0.4186 H   0  0  0  0  0  0  0  0  0  0  0  0
   -2.0559   11.9836   -2.5418 H   0  0  0  0  0  0  0  0  0  0  0  0
   -1.4585   13.2019   -1.3478 H   0  0  0  0  0  0  0  0  0  0  0  0
    0.2207   11.7905    0.2817 H   0  0  0  0  0  0  0  0  0  0  0  0
    1.7297   11.3877   -0.6056 H   0  0  0  0  0  0  0  0  0  0  0  0
    1.1106   13.0740   -0.6056 H   0  0  0  0  0  0  0  0  0  0  0  0
  1  2  1  0
  2  3  1  0
  3  4  1  0
  4  5  1  0
  5  6  1  0
  6  7  1  0
  7  8  1  0
  7  9  1  0
  2 10  1  0
 10 11  1  0
 11 12  1  0
 12 13  1  0
 13 14  1  6
 13 15  1  0
 15 16  1  0
 16 17  1  0
 17 18  2  0
 18 19  1  0
 19 20  1  0
 20 21  1  0
 21 22  1  0
 22 23  1  0
 22 24  1  0
 24 25  1  0
 24 26  1  0
 19 27  1  0
 27 28  1  1
 27 29  1  0
 29 30  1  0
 30 31  1  0
 31 32  1  1
  7  5  1  0
 31 10  1  0
 31 13  1  0
 27 15  1  0
 24 18  1  0
  1 33  1  0
  1 34  1  0
  1 35  1  0
  2 36  1  6
  3 37  1  0
  3 38  1  0
  4 39  1  0
  4 40  1  0
  5 41  1  6
  8 42  1  0
  8 43  1  0
  8 44  1  0
  9 45  1  0
  9 46  1  0
  9 47  1  0
 10 48  1  6
 11 49  1  0
 11 50  1  0
 12 51  1  0
 12 52  1  0
 14 53  1  0
 14 54  1  0
 14 55  1  0
 15 56  1  1
 16 57  1  0
 16 58  1  0
 17 59  1  0
 19 60  1  6
 20 61  1  0
 20 62  1  0
 21 63  1  0
 21 64  1  0
 22 65  1  6
 23 66  1  0
 25 67  1  0
 25 68  1  0
 25 69  1  0
 26 70  1  0
 26 71  1  0
 26 72  1  0
 28 73  1  0
 28 74  1  0
 28 75  1  0
 29 76  1  0
 29 77  1  0
 30 78  1  0
 30 79  1  0
 32 80  1  0
 32 81  1  0
 32 82  1  0
M  END
>  <meeko>  (16) 
{"is_sidechain": [false], "intermolecular_energy": 2.731, "internal_energy": -0.839}

$$$$
EPH_relaxed_0001_pdb2pqr_Repair_167_r2_0001_out
     RDKit          3D

 82 86  0  0  0  0  0  0  0  0999 V2000
   -0.6050   16.6430    0.1190 C   0  0  0  0  0  0  0  0  0  0  0  0
   -1.0430   15.1760    0.1600 C   0  0  2  0  0  0  0  0  0  0  0  0
   -1.7490   14.8180    1.4840 C   0  0  0  0  0  0  0  0  0  0  0  0
   -0.8140   14.2170    2.5370 C   0  0  0  0  0  0  0  0  0  0  0  0
   -1.4590   14.1730    3.8890 C   0  0  2  0  0  0  0  0  0  0  0  0
   -0.6880   14.7710    4.9400 O   0  0  0  0  0  0  0  0  0  0  0  0
   -0.9160   13.3570    5.0480 C   0  0  0  0  0  0  0  0  0  0  0  0
    0.3220   12.5280    4.9060 C   0  0  0  0  0  0  0  0  0  0  0  0
   -1.8500   12.9800    6.1560 C   0  0  0  0  0  0  0  0  0  0  0  0
    0.1630   14.2680   -0.0490 C   0  0  1  0  0  0  0  0  0  0  0  0
    0.4010   13.3060    1.1450 C   0  0  0  0  0  0  0  0  0  0  0  0
    0.9380   11.9790    0.5500 C   0  0  0  0  0  0  0  0  0  0  0  0
    1.3040   12.3270   -0.9120 C   0  0  1  0  0  0  0  0  0  0  0  0
    2.7080   13.0020   -0.8240 C   0  0  0  0  0  0  0  0  0  0  0  0
    1.2980   11.1380   -1.9270 C   0  0  2  0  0  0  0  0  0  0  0  0
    2.3170   10.0230   -1.6320 C   0  0  0  0  0  0  0  0  0  0  0  0
    3.6540   10.1950   -2.2730 C   0  0  0  0  0  0  0  0  0  0  0  0
    3.9370   11.0470   -3.2760 C   0  0  0  0  0  0  0  0  0  0  0  0
    2.8310   11.8810   -3.9360 C   0  0  1  0  0  0  0  0  0  0  0  0
    2.9740   11.8030   -5.4790 C   0  0  0  0  0  0  0  0  0  0  0  0
    4.3680   12.1980   -5.9580 C   0  0  0  0  0  0  0  0  0  0  0  0
    5.4350   11.3090   -5.3250 C   0  0  2  0  0  0  0  0  0  0  0  0
    5.2760    9.9750   -5.8190 O   0  0  0  0  0  0  0  0  0  0  0  0
    5.3820   11.2990   -3.7710 C   0  0  0  0  0  0  0  0  0  0  0  0
    5.8500   12.6720   -3.2270 C   0  0  0  0  0  0  0  0  0  0  0  0
    6.4150   10.2570   -3.2650 C   0  0  0  0  0  0  0  0  0  0  0  0
    1.3500   11.5810   -3.4450 C   0  0  1  0  0  0  0  0  0  0  0  0
    0.7420   10.4080   -4.2730 C   0  0  0  0  0  0  0  0  0  0  0  0
    0.4480   12.8400   -3.7310 C   0  0  0  0  0  0  0  0  0  0  0  0
    0.4020   13.9250   -2.6380 C   0  0  0  0  0  0  0  0  0  0  0  0
    0.1270   13.3070   -1.2640 C   0  0  2  0  0  0  0  0  0  0  0  0
   -1.2900   12.6390   -1.3150 C   0  0  0  0  0  0  0  0  0  0  0  0
   -0.4922   17.0208    1.1459 H   0  0  0  0  0  0  0  0  0  0  0  0
    0.3565   16.7240   -0.4092 H   0  0  0  0  0  0  0  0  0  0  0  0
   -1.3647   17.2379   -0.4092 H   0  0  0  0  0  0  0  0  0  0  0  0
   -1.7684   15.0238   -0.6528 H   0  0  0  0  0  0  0  0  0  0  0  0
   -2.1955   15.7340    1.8983 H   0  0  0  0  0  0  0  0  0  0  0  0
   -2.5033   14.0525    1.2494 H   0  0  0  0  0  0  0  0  0  0  0  0
   -0.5481   13.1932    2.2352 H   0  0  0  0  0  0  0  0  0  0  0  0
    0.0812   14.8527    2.6042 H   0  0  0  0  0  0  0  0  0  0  0  0
   -2.4608   14.2419    3.4399 H   0  0  0  0  0  0  0  0  0  0  0  0
    0.7070   12.2702    5.9036 H   0  0  0  0  0  0  0  0  0  0  0  0
    0.0847   11.6060    4.3550 H   0  0  0  0  0  0  0  0  0  0  0  0
    1.0841   13.0986    4.3550 H   0  0  0  0  0  0  0  0  0  0  0  0
   -1.3671   13.1749    7.1249 H   0  0  0  0  0  0  0  0  0  0  0  0
   -2.7707   13.5769    6.0785 H   0  0  0  0  0  0  0  0  0  0  0  0
   -2.0983   11.9112    6.0785 H   0  0  0  0  0  0  0  0  0  0  0  0
    0.9439   15.0291   -0.1937 H   0  0  0  0  0  0  0  0  0  0  0  0
    1.1393   13.7369    1.8373 H   0  0  0  0  0  0  0  0  0  0  0  0
   -0.5287   13.1385    1.7086 H   0  0  0  0  0  0  0  0  0  0  0  0
    1.8261   11.6373    1.1018 H   0  0  0  0  0  0  0  0  0  0  0  0
    0.2008   11.1650    0.6131 H   0  0  0  0  0  0  0  0  0  0  0  0
    2.9852   13.1353    0.2321 H   0  0  0  0  0  0  0  0  0  0  0  0
    3.4535   12.3638   -1.3210 H   0  0  0  0  0  0  0  0  0  0  0  0
    2.6751   13.9827   -1.3210 H   0  0  0  0  0  0  0  0  0  0  0  0
    0.3075   10.6900   -1.7590 H   0  0  0  0  0  0  0  0  0  0  0  0
    2.4655    9.9777   -0.5430 H   0  0  0  0  0  0  0  0  0  0  0  0
    1.8919    9.1020   -2.0574 H   0  0  0  0  0  0  0  0  0  0  0  0
    4.4779    9.5727   -1.8936 H   0  0  0  0  0  0  0  0  0  0  0  0
    2.9886   12.9160   -3.5984 H   0  0  0  0  0  0  0  0  0  0  0  0
    2.7700   10.7710   -5.8003 H   0  0  0  0  0  0  0  0  0  0  0  0
    2.2568   12.5126   -5.9172 H   0  0  0  0  0  0  0  0  0  0  0  0
    4.4155   12.0940   -7.0520 H   0  0  0  0  0  0  0  0  0  0  0  0
    4.5586   13.2401   -5.6619 H   0  0  0  0  0  0  0  0  0  0  0  0
    6.4156   11.7224   -5.6032 H   0  0  0  0  0  0  0  0  0  0  0  0
    4.5900    9.5430   -5.2840 H   0  0  0  0  0  0  0  0  0  0  0  0
    5.8433   12.6523   -2.1272 H   0  0  0  0  0  0  0  0  0  0  0  0
    6.8696   12.8795   -3.5838 H   0  0  0  0  0  0  0  0  0  0  0  0
    5.1694   13.4591   -3.5838 H   0  0  0  0  0  0  0  0  0  0  0  0
    6.4210   10.2510   -2.1650 H   0  0  0  0  0  0  0  0  0  0  0  0
    6.1402    9.2584   -3.6357 H   0  0  0  0  0  0  0  0  0  0  0  0
    7.4159   10.5231   -3.6357 H   0  0  0  0  0  0  0  0  0  0  0  0
    0.3456    9.6432   -3.5889 H   0  0  0  0  0  0  0  0  0  0  0  0
   -0.0717   10.7899   -4.9071 H   0  0  0  0  0  0  0  0  0  0  0  0
    1.5231    9.9633   -4.9071 H   0  0  0  0  0  0  0  0  0  0  0  0
    0.8183   13.3120   -4.6530 H   0  0  0  0  0  0  0  0  0  0  0  0
   -0.5788   12.4502   -3.7927 H   0  0  0  0  0  0  0  0  0  0  0  0
    1.3688   14.4489   -2.6100 H   0  0  0  0  0  0  0  0  0  0  0  0
   -0.4100   14.6281   -2.8754 H   0  0  0  0  0  0  0  0  0  0  0  0
   -1.6520   12.4683   -0.2904 H   0  0  0  0  0  0  0  0  0  0  0  0
   -1.9892   13.3023   -1.8452 H   0  0  0  0  0  0  0  0  0  0  0  0
   -1.2232   11.6775   -1.8452 H   0  0  0  0  0  0  0  0  0  0  0  0
  1  2  1  0
  2  3  1  0
  3  4  1  0
  4  5  1  0
  5  6  1  0
  6  7  1  0
  7  8  1  0
  7  9  1  0
  2 10  1  0
 10 11  1  0
 11 12  1  0
 12 13  1  0
 13 14  1  1
 13 15  1  0
 15 16  1  0
 16 17  1  0
 17 18  2  0
 18 19  1  0
 19 20  1  0
 20 21  1  0
 21 22  1  0
 22 23  1  0
 22 24  1  0
 24 25  1  0
 24 26  1  0
 19 27  1  0
 27 28  1  6
 27 29  1  0
 29 30  1  0
 30 31  1  0
 31 32  1  6
  7  5  1  0
 31 10  1  0
 31 13  1  0
 27 15  1  0
 24 18  1  0
  1 33  1  0
  1 34  1  0
  1 35  1  0
  2 36  1  6
  3 37  1  0
  3 38  1  0
  4 39  1  0
  4 40  1  0
  5 41  1  6
  8 42  1  0
  8 43  1  0
  8 44  1  0
  9 45  1  0
  9 46  1  0
  9 47  1  0
 10 48  1  6
 11 49  1  0
 11 50  1  0
 12 51  1  0
 12 52  1  0
 14 53  1  0
 14 54  1  0
 14 55  1  0
 15 56  1  6
 16 57  1  0
 16 58  1  0
 17 59  1  0
 19 60  1  1
 20 61  1  0
 20 62  1  0
 21 63  1  0
 21 64  1  0
 22 65  1  1
 23 66  1  0
 25 67  1  0
 25 68  1  0
 25 69  1  0
 26 70  1  0
 26 71  1  0
 26 72  1  0
 28 73  1  0
 28 74  1  0
 28 75  1  0
 29 76  1  0
 29 77  1  0
 30 78  1  0
 30 79  1  0
 32 80  1  0
 32 81  1  0
 32 82  1  0
M  END
>  <meeko>  (17) 
{"is_sidechain": [false], "intermolecular_energy": 2.731, "internal_energy": -0.839}

$$$$
EPH_relaxed_0001_pdb2pqr_Repair_167_r2_0001_out
     RDKit          3D

 82 86  0  0  0  0  0  0  0  0999 V2000
   -4.5680    6.5440    1.4090 C   0  0  0  0  0  0  0  0  0  0  0  0
   -4.7940    7.3900    0.1530 C   0  0  2  0  0  0  0  0  0  0  0  0
   -5.7690    6.7160   -0.8330 C   0  0  0  0  0  0  0  0  0  0  0  0
   -7.0190    7.5490   -1.1290 C   0  0  0  0  0  0  0  0  0  0  0  0
   -8.2040    7.0690   -0.3460 C   0  0  2  0  0  0  0  0  0  0  0  0
   -8.9110    5.9730   -0.9410 O   0  0  0  0  0  0  0  0  0  0  0  0
   -9.6360    7.2080   -0.8260 C   0  0  0  0  0  0  0  0  0  0  0  0
   -9.9610    7.8480   -2.1390 C   0  0  0  0  0  0  0  0  0  0  0  0
  -10.7370    7.1670    0.1880 C   0  0  0  0  0  0  0  0  0  0  0  0
   -3.4630    7.6640   -0.5360 C   0  0  1  0  0  0  0  0  0  0  0  0
   -3.3610    6.9880   -1.9290 C   0  0  0  0  0  0  0  0  0  0  0  0
   -2.5390    7.9440   -2.8310 C   0  0  0  0  0  0  0  0  0  0  0  0
   -1.9180    8.9670   -1.8510 C   0  0  1  0  0  0  0  0  0  0  0  0
   -0.6660    8.2460   -1.2590 C   0  0  0  0  0  0  0  0  0  0  0  0
   -1.5500   10.3630   -2.4520 C   0  0  2  0  0  0  0  0  0  0  0  0
   -0.4800   10.3360   -3.5570 C   0  0  0  0  0  0  0  0  0  0  0  0
    0.9290   10.4810   -3.0840 C   0  0  0  0  0  0  0  0  0  0  0  0
    1.3050   10.9100   -1.8650 C   0  0  0  0  0  0  0  0  0  0  0  0
    0.2650   11.3960   -0.8460 C   0  0  1  0  0  0  0  0  0  0  0  0
    0.7440   12.7290   -0.2140 C   0  0  0  0  0  0  0  0  0  0  0  0
    2.1430   12.6240    0.3850 C   0  0  0  0  0  0  0  0  0  0  0  0
    3.1580   12.1950   -0.6720 C   0  0  2  0  0  0  0  0  0  0  0  0
    3.2860   13.2410   -1.6390 O   0  0  0  0  0  0  0  0  0  0  0  0
    2.7760   10.8670   -1.3840 C   0  0  0  0  0  0  0  0  0  0  0  0
    2.9310    9.6840   -0.3980 C   0  0  0  0  0  0  0  0  0  0  0  0
    3.8050   10.6230   -2.5210 C   0  0  0  0  0  0  0  0  0  0  0  0
   -1.2340   11.4710   -1.3670 C   0  0  1  0  0  0  0  0  0  0  0  0
   -1.4910   12.8490   -2.0510 C   0  0  0  0  0  0  0  0  0  0  0  0
   -2.2110   11.3990   -0.1350 C   0  0  0  0  0  0  0  0  0  0  0  0
   -2.6320    9.9930    0.3360 C   0  0  0  0  0  0  0  0  0  0  0  0
   -3.1110    9.1410   -0.8430 C   0  0  2  0  0  0  0  0  0  0  0  0
   -4.3830    9.8290   -1.4460 C   0  0  0  0  0  0  0  0  0  0  0  0
   -4.7334    7.1633    2.3029 H   0  0  0  0  0  0  0  0  0  0  0  0
   -5.2718    5.6986    1.4132 H   0  0  0  0  0  0  0  0  0  0  0  0
   -3.5364    6.1622    1.4132 H   0  0  0  0  0  0  0  0  0  0  0  0
   -5.2497    8.3393    0.4711 H   0  0  0  0  0  0  0  0  0  0  0  0
   -5.2379    6.5384   -1.7798 H   0  0  0  0  0  0  0  0  0  0  0  0
   -6.1092    5.7825   -0.3610 H   0  0  0  0  0  0  0  0  0  0  0  0
   -6.8189    8.5980   -0.8654 H   0  0  0  0  0  0  0  0  0  0  0  0
   -7.2521    7.4488   -2.1993 H   0  0  0  0  0  0  0  0  0  0  0  0
   -7.7147    7.3358    0.6024 H   0  0  0  0  0  0  0  0  0  0  0  0
  -10.4527    8.8162   -1.9633 H   0  0  0  0  0  0  0  0  0  0  0  0
   -9.0338    8.0058   -2.7095 H   0  0  0  0  0  0  0  0  0  0  0  0
  -10.6354    7.1925   -2.7095 H   0  0  0  0  0  0  0  0  0  0  0  0
  -10.3048    7.1831    1.1994 H   0  0  0  0  0  0  0  0  0  0  0  0
  -11.3909    8.0414    0.0548 H   0  0  0  0  0  0  0  0  0  0  0  0
  -11.3241    6.2464    0.0548 H   0  0  0  0  0  0  0  0  0  0  0  0
   -2.7765    7.2644    0.2250 H   0  0  0  0  0  0  0  0  0  0  0  0
   -2.8512    6.0171   -1.8425 H   0  0  0  0  0  0  0  0  0  0  0  0
   -4.3593    6.8054   -2.3534 H   0  0  0  0  0  0  0  0  0  0  0  0
   -1.7524    7.3922   -3.3664 H   0  0  0  0  0  0  0  0  0  0  0  0
   -3.1586    8.4269   -3.6010 H   0  0  0  0  0  0  0  0  0  0  0  0
   -0.7127    8.2729   -0.1603 H   0  0  0  0  0  0  0  0  0  0  0  0
   -0.6498    7.2003   -1.5998 H   0  0  0  0  0  0  0  0  0  0  0  0
    0.2466    8.7569   -1.5998 H   0  0  0  0  0  0  0  0  0  0  0  0
   -2.4846   10.6606   -2.9500 H   0  0  0  0  0  0  0  0  0  0  0  0
   -0.5634    9.3760   -4.0875 H   0  0  0  0  0  0  0  0  0  0  0  0
   -0.6786   11.2102   -4.1944 H   0  0  0  0  0  0  0  0  0  0  0  0
    1.7275   10.2145   -3.7921 H   0  0  0  0  0  0  0  0  0  0  0  0
    0.2083   10.6155   -0.0730 H   0  0  0  0  0  0  0  0  0  0  0  0
    0.7515   13.5057   -0.9929 H   0  0  0  0  0  0  0  0  0  0  0  0
    0.0499   12.9797    0.6017 H   0  0  0  0  0  0  0  0  0  0  0  0
    2.4362   13.6042    0.7889 H   0  0  0  0  0  0  0  0  0  0  0  0
    2.1272   11.8681    1.1840 H   0  0  0  0  0  0  0  0  0  0  0  0
    4.1130   12.0112   -0.1580 H   0  0  0  0  0  0  0  0  0  0  0  0
    3.5230   12.8300   -2.4880 H   0  0  0  0  0  0  0  0  0  0  0  0
    2.8819   10.0588    0.6350 H   0  0  0  0  0  0  0  0  0  0  0  0
    2.1201    8.9595   -0.5641 H   0  0  0  0  0  0  0  0  0  0  0  0
    3.9012    9.1929   -0.5641 H   0  0  0  0  0  0  0  0  0  0  0  0
    4.7869   10.3902   -2.0832 H   0  0  0  0  0  0  0  0  0  0  0  0
    3.4713    9.7791   -3.1426 H   0  0  0  0  0  0  0  0  0  0  0  0
    3.8858   11.5269   -3.1426 H   0  0  0  0  0  0  0  0  0  0  0  0
   -1.6348   13.6200   -1.2797 H   0  0  0  0  0  0  0  0  0  0  0  0
   -0.6268   13.1141   -2.6778 H   0  0  0  0  0  0  0  0  0  0  0  0
   -2.3926   12.7847   -2.6778 H   0  0  0  0  0  0  0  0  0  0  0  0
   -1.7174   11.8996    0.7110 H   0  0  0  0  0  0  0  0  0  0  0  0
   -3.1402   11.8790   -0.4757 H   0  0  0  0  0  0  0  0  0  0  0  0
   -1.7709    9.4995    0.8103 H   0  0  0  0  0  0  0  0  0  0  0  0
   -3.4595   10.0964    1.0533 H   0  0  0  0  0  0  0  0  0  0  0  0
   -5.0317   10.1799   -0.6299 H   0  0  0  0  0  0  0  0  0  0  0  0
   -4.0778   10.6851   -2.0657 H   0  0  0  0  0  0  0  0  0  0  0  0
   -4.9324    9.1051   -2.0657 H   0  0  0  0  0  0  0  0  0  0  0  0
  1  2  1  0
  2  3  1  0
  3  4  1  0
  4  5  1  0
  5  6  1  0
  6  7  1  0
  7  8  1  0
  7  9  1  0
  2 10  1  0
 10 11  1  0
 11 12  1  0
 12 13  1  0
 13 14  1  1
 13 15  1  0
 15 16  1  0
 16 17  1  0
 17 18  2  0
 18 19  1  0
 19 20  1  0
 20 21  1  0
 21 22  1  0
 22 23  1  0
 22 24  1  0
 24 25  1  0
 24 26  1  0
 19 27  1  0
 27 28  1  6
 27 29  1  0
 29 30  1  0
 30 31  1  0
 31 32  1  6
  7  5  1  0
 31 10  1  0
 31 13  1  0
 27 15  1  0
 24 18  1  0
  1 33  1  0
  1 34  1  0
  1 35  1  0
  2 36  1  1
  3 37  1  0
  3 38  1  0
  4 39  1  0
  4 40  1  0
  5 41  1  1
  8 42  1  0
  8 43  1  0
  8 44  1  0
  9 45  1  0
  9 46  1  0
  9 47  1  0
 10 48  1  1
 11 49  1  0
 11 50  1  0
 12 51  1  0
 12 52  1  0
 14 53  1  0
 14 54  1  0
 14 55  1  0
 15 56  1  6
 16 57  1  0
 16 58  1  0
 17 59  1  0
 19 60  1  1
 20 61  1  0
 20 62  1  0
 21 63  1  0
 21 64  1  0
 22 65  1  1
 23 66  1  0
 25 67  1  0
 25 68  1  0
 25 69  1  0
 26 70  1  0
 26 71  1  0
 26 72  1  0
 28 73  1  0
 28 74  1  0
 28 75  1  0
 29 76  1  0
 29 77  1  0
 30 78  1  0
 30 79  1  0
 32 80  1  0
 32 81  1  0
 32 82  1  0
M  END
>  <meeko>  (18) 
{"is_sidechain": [false], "intermolecular_energy": 2.731, "internal_energy": -0.839}

$$$$
