EPH_relaxed_0001_pdb2pqr_Repair_262_r2_0001_out
     RDKit          3D

 82 86  0  0  0  0  0  0  0  0999 V2000
    4.2740   17.2380   -0.5410 C   0  0  0  0  0  0  0  0  0  0  0  0
    2.9110   17.8680   -0.2360 C   0  0  2  0  0  0  0  0  0  0  0  0
    2.9430   18.7290    1.0420 C   0  0  0  0  0  0  0  0  0  0  0  0
    4.2920   18.7070    1.7660 C   0  0  0  0  0  0  0  0  0  0  0  0
    4.1760   19.2210    3.1690 C   0  0  2  0  0  0  0  0  0  0  0  0
    5.1650   20.1930    3.5340 O   0  0  0  0  0  0  0  0  0  0  0  0
    5.2080   18.9470    4.2480 C   0  0  0  0  0  0  0  0  0  0  0  0
    6.4290   18.1280    3.9700 C   0  0  0  0  0  0  0  0  0  0  0  0
    4.7910   19.0590    5.6810 C   0  0  0  0  0  0  0  0  0  0  0  0
    1.8530   16.7790   -0.1040 C   0  0  1  0  0  0  0  0  0  0  0  0
    0.4090   17.3470   -0.0880 C   0  0  0  0  0  0  0  0  0  0  0  0
   -0.4870   16.3130   -0.8170 C   0  0  0  0  0  0  0  0  0  0  0  0
    0.3940   15.0470   -0.9340 C   0  0  1  0  0  0  0  0  0  0  0  0
    0.2810   14.3510    0.4590 C   0  0  0  0  0  0  0  0  0  0  0  0
    0.0430   14.0660   -2.1000 C   0  0  2  0  0  0  0  0  0  0  0  0
   -1.3580   13.4360   -2.0230 C   0  0  0  0  0  0  0  0  0  0  0  0
   -1.4360   12.1410   -1.2850 C   0  0  0  0  0  0  0  0  0  0  0  0
   -0.3860   11.3660   -0.9530 C   0  0  0  0  0  0  0  0  0  0  0  0
    1.0330   11.7240   -1.4110 C   0  0  1  0  0  0  0  0  0  0  0  0
    1.7290   10.4590   -1.9790 C   0  0  0  0  0  0  0  0  0  0  0  0
    1.7100    9.2910   -0.9970 C   0  0  0  0  0  0  0  0  0  0  0  0
    0.2790    8.9270   -0.6110 C   0  0  2  0  0  0  0  0  0  0  0  0
   -0.3920    8.4070   -1.7630 O   0  0  0  0  0  0  0  0  0  0  0  0
   -0.5250   10.1270   -0.0350 C   0  0  0  0  0  0  0  0  0  0  0  0
    0.0230   10.4960    1.3650 C   0  0  0  0  0  0  0  0  0  0  0  0
   -1.9900    9.6600    0.1810 C   0  0  0  0  0  0  0  0  0  0  0  0
    1.1530   12.9750   -2.3850 C   0  0  1  0  0  0  0  0  0  0  0  0
    0.9600   12.5190   -3.8630 C   0  0  0  0  0  0  0  0  0  0  0  0
    2.6100   13.5640   -2.2880 C   0  0  0  0  0  0  0  0  0  0  0  0
    2.8630   14.6170   -1.1920 C   0  0  0  0  0  0  0  0  0  0  0  0
    1.7900   15.7090   -1.2240 C   0  0  2  0  0  0  0  0  0  0  0  0
    1.8940   16.4420   -2.6050 C   0  0  0  0  0  0  0  0  0  0  0  0
    4.7876   17.0006    0.4023 H   0  0  0  0  0  0  0  0  0  0  0  0
    4.1296   16.3153   -1.1222 H   0  0  0  0  0  0  0  0  0  0  0  0
    4.8833   17.9458   -1.1222 H   0  0  0  0  0  0  0  0  0  0  0  0
    2.6579   18.5322   -1.0755 H   0  0  0  0  0  0  0  0  0  0  0  0
    2.7141   19.7689    0.7659 H   0  0  0  0  0  0  0  0  0  0  0  0
    2.2002   18.3049    1.7337 H   0  0  0  0  0  0  0  0  0  0  0  0
    4.6643   17.6723    1.7950 H   0  0  0  0  0  0  0  0  0  0  0  0
    4.9865   19.3604    1.2175 H   0  0  0  0  0  0  0  0  0  0  0  0
    3.0824   19.1043    3.1469 H   0  0  0  0  0  0  0  0  0  0  0  0
    6.8882   17.8200    4.9209 H   0  0  0  0  0  0  0  0  0  0  0  0
    6.1479   17.2351    3.3924 H   0  0  0  0  0  0  0  0  0  0  0  0
    7.1485   18.7269    3.3924 H   0  0  0  0  0  0  0  0  0  0  0  0
    5.6478   18.8289    6.3313 H   0  0  0  0  0  0  0  0  0  0  0  0
    4.4423   20.0826    5.8825 H   0  0  0  0  0  0  0  0  0  0  0  0
    3.9764   18.3478    5.8825 H   0  0  0  0  0  0  0  0  0  0  0  0
    2.1802   16.3179    0.8396 H   0  0  0  0  0  0  0  0  0  0  0  0
    0.0662   17.4810    0.9486 H   0  0  0  0  0  0  0  0  0  0  0  0
    0.3649   18.3274   -0.5849 H   0  0  0  0  0  0  0  0  0  0  0  0
   -1.3933   16.1025   -0.2303 H   0  0  0  0  0  0  0  0  0  0  0  0
   -0.8290   16.6753   -1.7977 H   0  0  0  0  0  0  0  0  0  0  0  0
    0.4027   15.1009    1.2545 H   0  0  0  0  0  0  0  0  0  0  0  0
   -0.7062   13.8748    0.5520 H   0  0  0  0  0  0  0  0  0  0  0  0
    1.0669   13.5869    0.5520 H   0  0  0  0  0  0  0  0  0  0  0  0
    0.0216   14.7350   -2.9730 H   0  0  0  0  0  0  0  0  0  0  0  0
   -2.0258   14.1528   -1.5228 H   0  0  0  0  0  0  0  0  0  0  0  0
   -1.6482   13.2126   -3.0603 H   0  0  0  0  0  0  0  0  0  0  0  0
   -2.4352   11.7902   -0.9873 H   0  0  0  0  0  0  0  0  0  0  0  0
    1.5636   12.0704   -0.5119 H   0  0  0  0  0  0  0  0  0  0  0  0
    1.2101   10.1542   -2.8998 H   0  0  0  0  0  0  0  0  0  0  0  0
    2.7809   10.7151   -2.1735 H   0  0  0  0  0  0  0  0  0  0  0  0
    2.1896    8.4189   -1.4654 H   0  0  0  0  0  0  0  0  0  0  0  0
    2.2546    9.5871   -0.0883 H   0  0  0  0  0  0  0  0  0  0  0  0
    0.3352    8.1743    0.1892 H   0  0  0  0  0  0  0  0  0  0  0  0
   -0.1060    8.9310   -2.5310 H   0  0  0  0  0  0  0  0  0  0  0  0
   -0.6252   10.0595    2.1392 H   0  0  0  0  0  0  0  0  0  0  0  0
    1.0434   10.1003    1.4753 H   0  0  0  0  0  0  0  0  0  0  0  0
    0.0401   11.5903    1.4753 H   0  0  0  0  0  0  0  0  0  0  0  0
   -2.1985    9.5935    1.2590 H   0  0  0  0  0  0  0  0  0  0  0  0
   -2.6775   10.3835   -0.2815 H   0  0  0  0  0  0  0  0  0  0  0  0
   -2.1319    8.6721   -0.2815 H   0  0  0  0  0  0  0  0  0  0  0  0
    0.5313   11.5061   -3.8812 H   0  0  0  0  0  0  0  0  0  0  0  0
    0.2791   13.2146   -4.3754 H   0  0  0  0  0  0  0  0  0  0  0  0
    1.9334   12.5145   -4.3754 H   0  0  0  0  0  0  0  0  0  0  0  0
    3.2969   12.7241   -2.1072 H   0  0  0  0  0  0  0  0  0  0  0  0
    2.7695   14.0943   -3.2384 H   0  0  0  0  0  0  0  0  0  0  0  0
    2.8460   14.1243   -0.2087 H   0  0  0  0  0  0  0  0  0  0  0  0
    3.8432   15.0826   -1.3721 H   0  0  0  0  0  0  0  0  0  0  0  0
    2.0467   17.5185   -2.4382 H   0  0  0  0  0  0  0  0  0  0  0  0
    2.7434   16.0349   -3.1732 H   0  0  0  0  0  0  0  0  0  0  0  0
    0.9649   16.2872   -3.1732 H   0  0  0  0  0  0  0  0  0  0  0  0
  1  2  1  0
  2  3  1  0
  3  4  1  0
  4  5  1  0
  5  6  1  0
  6  7  1  0
  7  8  1  0
  7  9  1  0
  2 10  1  0
 10 11  1  0
 11 12  1  0
 12 13  1  0
 13 14  1  1
 13 15  1  0
 15 16  1  0
 16 17  1  0
 17 18  2  0
 18 19  1  0
 19 20  1  0
 20 21  1  0
 21 22  1  0
 22 23  1  0
 22 24  1  0
 24 25  1  0
 24 26  1  0
 19 27  1  0
 27 28  1  6
 27 29  1  0
 29 30  1  0
 30 31  1  0
 31 32  1  6
  7  5  1  0
 31 10  1  0
 31 13  1  0
 27 15  1  0
 24 18  1  0
  1 33  1  0
  1 34  1  0
  1 35  1  0
  2 36  1  6
  3 37  1  0
  3 38  1  0
  4 39  1  0
  4 40  1  0
  5 41  1  1
  8 42  1  0
  8 43  1  0
  8 44  1  0
  9 45  1  0
  9 46  1  0
  9 47  1  0
 10 48  1  1
 11 49  1  0
 11 50  1  0
 12 51  1  0
 12 52  1  0
 14 53  1  0
 14 54  1  0
 14 55  1  0
 15 56  1  6
 16 57  1  0
 16 58  1  0
 17 59  1  0
 19 60  1  1
 20 61  1  0
 20 62  1  0
 21 63  1  0
 21 64  1  0
 22 65  1  1
 23 66  1  0
 25 67  1  0
 25 68  1  0
 25 69  1  0
 26 70  1  0
 26 71  1  0
 26 72  1  0
 28 73  1  0
 28 74  1  0
 28 75  1  0
 29 76  1  0
 29 77  1  0
 30 78  1  0
 30 79  1  0
 32 80  1  0
 32 81  1  0
 32 82  1  0
M  END
>  <meeko>  (1) 
{"is_sidechain": [false], "intermolecular_energy": 2.731, "internal_energy": -0.839}

$$$$
EPH_relaxed_0001_pdb2pqr_Repair_262_r2_0001_out
     RDKit          3D

 82 86  0  0  0  0  0  0  0  0999 V2000
   -1.7360    8.6860   -1.9810 C   0  0  0  0  0  0  0  0  0  0  0  0
   -2.1130    9.1450   -0.5690 C   0  0  2  0  0  0  0  0  0  0  0  0
   -3.6130    9.4840   -0.4510 C   0  0  0  0  0  0  0  0  0  0  0  0
   -4.5120    8.2540   -0.3000 C   0  0  0  0  0  0  0  0  0  0  0  0
   -5.2100    7.9170   -1.5820 C   0  0  2  0  0  0  0  0  0  0  0  0
   -6.4080    8.6670   -1.8270 O   0  0  0  0  0  0  0  0  0  0  0  0
   -6.5720    7.2510   -1.6430 C   0  0  0  0  0  0  0  0  0  0  0  0
   -7.3170    6.8810   -0.3990 C   0  0  0  0  0  0  0  0  0  0  0  0
   -6.9570    6.5220   -2.8930 C   0  0  0  0  0  0  0  0  0  0  0  0
   -1.2730   10.3530   -0.1740 C   0  0  1  0  0  0  0  0  0  0  0  0
   -0.3910   10.0840    1.0750 C   0  0  0  0  0  0  0  0  0  0  0  0
    0.9290   10.8710    0.8680 C   0  0  0  0  0  0  0  0  0  0  0  0
    0.6350   11.8210   -0.3170 C   0  0  1  0  0  0  0  0  0  0  0  0
   -0.1310   13.0250    0.3150 C   0  0  0  0  0  0  0  0  0  0  0  0
    1.8730   12.2950   -1.1450 C   0  0  2  0  0  0  0  0  0  0  0  0
    2.9050   13.1240   -0.3600 C   0  0  0  0  0  0  0  0  0  0  0  0
    2.6820   14.6000   -0.3760 C   0  0  0  0  0  0  0  0  0  0  0  0
    1.8680   15.2590   -1.2210 C   0  0  0  0  0  0  0  0  0  0  0  0
    1.1400   14.5190   -2.3510 C   0  0  1  0  0  0  0  0  0  0  0  0
    1.2890   15.3180   -3.6730 C   0  0  0  0  0  0  0  0  0  0  0  0
    0.8330   16.7670   -3.5350 C   0  0  0  0  0  0  0  0  0  0  0  0
    1.6190   17.4850   -2.4420 C   0  0  2  0  0  0  0  0  0  0  0  0
    2.9840   17.6020   -2.8570 O   0  0  0  0  0  0  0  0  0  0  0  0
    1.5510   16.7670   -1.0650 C   0  0  0  0  0  0  0  0  0  0  0  0
    0.1260   16.9050   -0.4760 C   0  0  0  0  0  0  0  0  0  0  0  0
    2.4990   17.5140   -0.0890 C   0  0  0  0  0  0  0  0  0  0  0  0
    1.5070   12.9820   -2.5230 C   0  0  1  0  0  0  0  0  0  0  0  0
    2.7570   12.8330   -3.4420 C   0  0  0  0  0  0  0  0  0  0  0  0
    0.3230   12.2510   -3.2600 C   0  0  0  0  0  0  0  0  0  0  0  0
   -0.8110   11.7000   -2.3760 C   0  0  0  0  0  0  0  0  0  0  0  0
   -0.2500   10.8780   -1.2110 C   0  0  2  0  0  0  0  0  0  0  0  0
    0.5080    9.6470   -1.8160 C   0  0  0  0  0  0  0  0  0  0  0  0
   -1.0390    7.8374   -1.9168 H   0  0  0  0  0  0  0  0  0  0  0  0
   -2.6432    8.3754   -2.5200 H   0  0  0  0  0  0  0  0  0  0  0  0
   -1.2551    9.5155   -2.5200 H   0  0  0  0  0  0  0  0  0  0  0  0
   -1.9080    8.3100    0.1171 H   0  0  0  0  0  0  0  0  0  0  0  0
   -3.7552   10.1282    0.4292 H   0  0  0  0  0  0  0  0  0  0  0  0
   -3.9046    9.9822   -1.3874 H   0  0  0  0  0  0  0  0  0  0  0  0
   -3.8945    7.3965    0.0058 H   0  0  0  0  0  0  0  0  0  0  0  0
   -5.2768    8.4793    0.4579 H   0  0  0  0  0  0  0  0  0  0  0  0
   -4.2520    7.6834   -2.0696 H   0  0  0  0  0  0  0  0  0  0  0  0
   -6.7274    7.1738    0.4823 H   0  0  0  0  0  0  0  0  0  0  0  0
   -8.2851    7.4030   -0.3824 H   0  0  0  0  0  0  0  0  0  0  0  0
   -7.4861    5.7942   -0.3824 H   0  0  0  0  0  0  0  0  0  0  0  0
   -7.4556    5.5779   -2.6281 H   0  0  0  0  0  0  0  0  0  0  0  0
   -7.6433    7.1457   -3.4846 H   0  0  0  0  0  0  0  0  0  0  0  0
   -6.0549    6.3068   -3.4846 H   0  0  0  0  0  0  0  0  0  0  0  0
   -2.0729   11.0936   -0.0270 H   0  0  0  0  0  0  0  0  0  0  0  0
   -0.9030   10.4351    1.9831 H   0  0  0  0  0  0  0  0  0  0  0  0
   -0.1949    9.0084    1.1960 H   0  0  0  0  0  0  0  0  0  0  0  0
    1.1850   11.4444    1.7712 H   0  0  0  0  0  0  0  0  0  0  0  0
    1.7835   10.2075    0.6688 H   0  0  0  0  0  0  0  0  0  0  0  0
   -0.0855   12.9535    1.4117 H   0  0  0  0  0  0  0  0  0  0  0  0
    0.3341   13.9671   -0.0106 H   0  0  0  0  0  0  0  0  0  0  0  0
   -1.1815   13.0029   -0.0106 H   0  0  0  0  0  0  0  0  0  0  0  0
    2.3734   11.3453   -1.3850 H   0  0  0  0  0  0  0  0  0  0  0  0
    2.8848   12.7885    0.6874 H   0  0  0  0  0  0  0  0  0  0  0  0
    3.8717   12.9568   -0.8574 H   0  0  0  0  0  0  0  0  0  0  0  0
    3.2295   15.1998    0.3659 H   0  0  0  0  0  0  0  0  0  0  0  0
    0.0812   14.4791   -2.0555 H   0  0  0  0  0  0  0  0  0  0  0  0
    2.3471   15.3084   -3.9735 H   0  0  0  0  0  0  0  0  0  0  0  0
    0.6495   14.8371   -4.4278 H   0  0  0  0  0  0  0  0  0  0  0  0
    0.9904   17.2865   -4.4918 H   0  0  0  0  0  0  0  0  0  0  0  0
   -0.2329   16.7750   -3.2634 H   0  0  0  0  0  0  0  0  0  0  0  0
    1.1599   18.4747   -2.3019 H   0  0  0  0  0  0  0  0  0  0  0  0
    2.9880   17.9730   -3.7550 H   0  0  0  0  0  0  0  0  0  0  0  0
    0.1812   16.8997    0.6226 H   0  0  0  0  0  0  0  0  0  0  0  0
   -0.3213   17.8507   -0.8160 H   0  0  0  0  0  0  0  0  0  0  0  0
   -0.4945   16.0627   -0.8160 H   0  0  0  0  0  0  0  0  0  0  0  0
    2.2107   17.2869    0.9480 H   0  0  0  0  0  0  0  0  0  0  0  0
    3.5349   17.1868   -0.2617 H   0  0  0  0  0  0  0  0  0  0  0  0
    2.4232   18.5977   -0.2617 H   0  0  0  0  0  0  0  0  0  0  0  0
    3.6583   12.7256   -2.8206 H   0  0  0  0  0  0  0  0  0  0  0  0
    2.6412   11.9423   -4.0770 H   0  0  0  0  0  0  0  0  0  0  0  0
    2.8538   13.7260   -4.0770 H   0  0  0  0  0  0  0  0  0  0  0  0
   -0.1232   12.9679   -3.9650 H   0  0  0  0  0  0  0  0  0  0  0  0
    0.7784   11.3660   -3.7284 H   0  0  0  0  0  0  0  0  0  0  0  0
   -1.3948   12.5413   -1.9742 H   0  0  0  0  0  0  0  0  0  0  0  0
   -1.4481   11.0469   -2.9905 H   0  0  0  0  0  0  0  0  0  0  0  0
    0.8953    9.0181   -1.0009 H   0  0  0  0  0  0  0  0  0  0  0  0
   -0.1844    9.0585   -2.4359 H   0  0  0  0  0  0  0  0  0  0  0  0
    1.3452   10.0004   -2.4359 H   0  0  0  0  0  0  0  0  0  0  0  0
  1  2  1  0
  2  3  1  0
  3  4  1  0
  4  5  1  0
  5  6  1  0
  6  7  1  0
  7  8  1  0
  7  9  1  0
  2 10  1  0
 10 11  1  0
 11 12  1  0
 12 13  1  0
 13 14  1  1
 13 15  1  0
 15 16  1  0
 16 17  1  0
 17 18  2  0
 18 19  1  0
 19 20  1  0
 20 21  1  0
 21 22  1  0
 22 23  1  0
 22 24  1  0
 24 25  1  0
 24 26  1  0
 19 27  1  0
 27 28  1  6
 27 29  1  0
 29 30  1  0
 30 31  1  0
 31 32  1  6
  7  5  1  0
 31 10  1  0
 31 13  1  0
 27 15  1  0
 24 18  1  0
  1 33  1  0
  1 34  1  0
  1 35  1  0
  2 36  1  1
  3 37  1  0
  3 38  1  0
  4 39  1  0
  4 40  1  0
  5 41  1  6
  8 42  1  0
  8 43  1  0
  8 44  1  0
  9 45  1  0
  9 46  1  0
  9 47  1  0
 10 48  1  1
 11 49  1  0
 11 50  1  0
 12 51  1  0
 12 52  1  0
 14 53  1  0
 14 54  1  0
 14 55  1  0
 15 56  1  6
 16 57  1  0
 16 58  1  0
 17 59  1  0
 19 60  1  1
 20 61  1  0
 20 62  1  0
 21 63  1  0
 21 64  1  0
 22 65  1  1
 23 66  1  0
 25 67  1  0
 25 68  1  0
 25 69  1  0
 26 70  1  0
 26 71  1  0
 26 72  1  0
 28 73  1  0
 28 74  1  0
 28 75  1  0
 29 76  1  0
 29 77  1  0
 30 78  1  0
 30 79  1  0
 32 80  1  0
 32 81  1  0
 32 82  1  0
M  END
>  <meeko>  (2) 
{"is_sidechain": [false], "intermolecular_energy": 2.731, "internal_energy": -0.839}

$$$$
EPH_relaxed_0001_pdb2pqr_Repair_262_r2_0001_out
     RDKit          3D

 82 86  0  0  0  0  0  0  0  0999 V2000
    1.7650   18.6240   -1.4050 C   0  0  0  0  0  0  0  0  0  0  0  0
    1.8190   17.3970   -0.4900 C   0  0  2  0  0  0  0  0  0  0  0  0
    3.2570   17.0740   -0.0370 C   0  0  0  0  0  0  0  0  0  0  0  0
    4.0730   18.3100    0.3520 C   0  0  0  0  0  0  0  0  0  0  0  0
    3.7900   18.7390    1.7600 C   0  0  2  0  0  0  0  0  0  0  0  0
    4.1230   20.1040    2.0480 O   0  0  0  0  0  0  0  0  0  0  0  0
    4.8740   19.1050    2.7570 C   0  0  0  0  0  0  0  0  0  0  0  0
    6.3230   19.0560    2.3860 C   0  0  0  0  0  0  0  0  0  0  0  0
    4.5560   19.0350    4.2180 C   0  0  0  0  0  0  0  0  0  0  0  0
    1.2130   16.1920   -1.2000 C   0  0  1  0  0  0  0  0  0  0  0  0
    1.1630   16.3700   -2.7410 C   0  0  0  0  0  0  0  0  0  0  0  0
    1.4080   14.9700   -3.3610 C   0  0  0  0  0  0  0  0  0  0  0  0
    1.2600   13.9880   -2.1760 C   0  0  1  0  0  0  0  0  0  0  0  0
   -0.2790   13.7850   -2.0120 C   0  0  0  0  0  0  0  0  0  0  0  0
    2.0110   12.6230   -2.3120 C   0  0  2  0  0  0  0  0  0  0  0  0
    1.5470   11.7360   -3.4800 C   0  0  0  0  0  0  0  0  0  0  0  0
    0.4480   10.7790   -3.1570 C   0  0  0  0  0  0  0  0  0  0  0  0
    0.0510   10.4330   -1.9180 C   0  0  0  0  0  0  0  0  0  0  0  0
    0.7950   10.9500   -0.6800 C   0  0  1  0  0  0  0  0  0  0  0  0
    1.0460    9.7750    0.3020 C   0  0  0  0  0  0  0  0  0  0  0  0
   -0.2350    9.0290    0.6600 C   0  0  0  0  0  0  0  0  0  0  0  0
   -0.9150    8.4800   -0.5920 C   0  0  2  0  0  0  0  0  0  0  0  0
   -0.0830    7.4640   -1.1600 O   0  0  0  0  0  0  0  0  0  0  0  0
   -1.2090    9.5720   -1.6580 C   0  0  0  0  0  0  0  0  0  0  0  0
   -2.3380   10.5030   -1.1510 C   0  0  0  0  0  0  0  0  0  0  0  0
   -1.7650    8.8660   -2.9240 C   0  0  0  0  0  0  0  0  0  0  0  0
    2.1080   11.7990   -0.9640 C   0  0  1  0  0  0  0  0  0  0  0  0
    3.3350   10.8480   -1.1110 C   0  0  0  0  0  0  0  0  0  0  0  0
    2.4050   12.7190    0.2790 C   0  0  0  0  0  0  0  0  0  0  0  0
    1.7280   14.1020    0.2980 C   0  0  0  0  0  0  0  0  0  0  0  0
    1.9350   14.8320   -1.0330 C   0  0  2  0  0  0  0  0  0  0  0  0
    3.4730   15.0700   -1.2150 C   0  0  0  0  0  0  0  0  0  0  0  0
    1.7248   19.5367   -0.7924 H   0  0  0  0  0  0  0  0  0  0  0  0
    2.6630   18.6477   -2.0399 H   0  0  0  0  0  0  0  0  0  0  0  0
    0.8684   18.5688   -2.0399 H   0  0  0  0  0  0  0  0  0  0  0  0
    1.2334   17.6300    0.4115 H   0  0  0  0  0  0  0  0  0  0  0  0
    3.2044   16.4045    0.8342 H   0  0  0  0  0  0  0  0  0  0  0  0
    3.7668   16.6093   -0.8938 H   0  0  0  0  0  0  0  0  0  0  0  0
    5.1435   18.0744    0.2592 H   0  0  0  0  0  0  0  0  0  0  0  0
    3.7914   19.1332   -0.3210 H   0  0  0  0  0  0  0  0  0  0  0  0
    2.9318   18.0536    1.8217 H   0  0  0  0  0  0  0  0  0  0  0  0
    6.9350   19.0353    3.2998 H   0  0  0  0  0  0  0  0  0  0  0  0
    6.5192   18.1507    1.7927 H   0  0  0  0  0  0  0  0  0  0  0  0
    6.5799   19.9460    1.7927 H   0  0  0  0  0  0  0  0  0  0  0  0
    5.4667   19.2355    4.8015 H   0  0  0  0  0  0  0  0  0  0  0  0
    3.7907   19.7862    4.4631 H   0  0  0  0  0  0  0  0  0  0  0  0
    4.1769   18.0319    4.4631 H   0  0  0  0  0  0  0  0  0  0  0  0
    0.2312   16.1600   -0.7050 H   0  0  0  0  0  0  0  0  0  0  0  0
    0.1779   16.7525   -3.0464 H   0  0  0  0  0  0  0  0  0  0  0  0
    1.9217   17.0906   -3.0803 H   0  0  0  0  0  0  0  0  0  0  0  0
    0.6618   14.7541   -4.1399 H   0  0  0  0  0  0  0  0  0  0  0  0
    2.3928   14.8945   -3.8452 H   0  0  0  0  0  0  0  0  0  0  0  0
   -0.5325   13.7516   -0.9421 H   0  0  0  0  0  0  0  0  0  0  0  0
   -0.8120   14.6206   -2.4892 H   0  0  0  0  0  0  0  0  0  0  0  0
   -0.5771   12.8398   -2.4892 H   0  0  0  0  0  0  0  0  0  0  0  0
    3.0328   12.9412   -2.5662 H   0  0  0  0  0  0  0  0  0  0  0  0
    1.1973   12.3946   -4.2887 H   0  0  0  0  0  0  0  0  0  0  0  0
    2.4150   11.1199   -3.7574 H   0  0  0  0  0  0  0  0  0  0  0  0
   -0.0824   10.3174   -4.0029 H   0  0  0  0  0  0  0  0  0  0  0  0
    0.1294   11.6909   -0.2131 H   0  0  0  0  0  0  0  0  0  0  0  0
    1.7469    9.0680   -0.1658 H   0  0  0  0  0  0  0  0  0  0  0  0
    1.4572   10.1976    1.2306 H   0  0  0  0  0  0  0  0  0  0  0  0
    0.0108    8.1934    1.3319 H   0  0  0  0  0  0  0  0  0  0  0  0
   -0.9232    9.7304    1.1543 H   0  0  0  0  0  0  0  0  0  0  0  0
   -1.8891    8.0706   -0.2863 H   0  0  0  0  0  0  0  0  0  0  0  0
    0.7760    7.5000   -0.7070 H   0  0  0  0  0  0  0  0  0  0  0  0
   -2.3434   10.5074   -0.0510 H   0  0  0  0  0  0  0  0  0  0  0  0
   -2.1649   11.5244   -1.5209 H   0  0  0  0  0  0  0  0  0  0  0  0
   -3.3077   10.1385   -1.5209 H   0  0  0  0  0  0  0  0  0  0  0  0
   -2.4195    8.0349   -2.6227 H   0  0  0  0  0  0  0  0  0  0  0  0
   -2.3403    9.5871   -3.5231 H   0  0  0  0  0  0  0  0  0  0  0  0
   -0.9291    8.4758   -3.5231 H   0  0  0  0  0  0  0  0  0  0  0  0
    3.7008   10.5645   -0.1131 H   0  0  0  0  0  0  0  0  0  0  0  0
    3.0347    9.9444   -1.6618 H   0  0  0  0  0  0  0  0  0  0  0  0
    4.1351   11.3642   -1.6618 H   0  0  0  0  0  0  0  0  0  0  0  0
    2.0796   12.1770    1.1792 H   0  0  0  0  0  0  0  0  0  0  0  0
    3.4839   12.9278    0.2307 H   0  0  0  0  0  0  0  0  0  0  0  0
    0.6498   13.9725    0.4736 H   0  0  0  0  0  0  0  0  0  0  0  0
    2.1794   14.7026    1.1014 H   0  0  0  0  0  0  0  0  0  0  0  0
    3.9519   15.1441   -0.2275 H   0  0  0  0  0  0  0  0  0  0  0  0
    3.9107   14.2289   -1.7726 H   0  0  0  0  0  0  0  0  0  0  0  0
    3.6360   16.0041   -1.7726 H   0  0  0  0  0  0  0  0  0  0  0  0
  1  2  1  0
  2  3  1  0
  3  4  1  0
  4  5  1  0
  5  6  1  0
  6  7  1  0
  7  8  1  0
  7  9  1  0
  2 10  1  0
 10 11  1  0
 11 12  1  0
 12 13  1  0
 13 14  1  1
 13 15  1  0
 15 16  1  0
 16 17  1  0
 17 18  2  0
 18 19  1  0
 19 20  1  0
 20 21  1  0
 21 22  1  0
 22 23  1  0
 22 24  1  0
 24 25  1  0
 24 26  1  0
 19 27  1  0
 27 28  1  6
 27 29  1  0
 29 30  1  0
 30 31  1  0
 31 32  1  6
  7  5  1  0
 31 10  1  0
 31 13  1  0
 27 15  1  0
 24 18  1  0
  1 33  1  0
  1 34  1  0
  1 35  1  0
  2 36  1  1
  3 37  1  0
  3 38  1  0
  4 39  1  0
  4 40  1  0
  5 41  1  1
  8 42  1  0
  8 43  1  0
  8 44  1  0
  9 45  1  0
  9 46  1  0
  9 47  1  0
 10 48  1  1
 11 49  1  0
 11 50  1  0
 12 51  1  0
 12 52  1  0
 14 53  1  0
 14 54  1  0
 14 55  1  0
 15 56  1  6
 16 57  1  0
 16 58  1  0
 17 59  1  0
 19 60  1  1
 20 61  1  0
 20 62  1  0
 21 63  1  0
 21 64  1  0
 22 65  1  1
 23 66  1  0
 25 67  1  0
 25 68  1  0
 25 69  1  0
 26 70  1  0
 26 71  1  0
 26 72  1  0
 28 73  1  0
 28 74  1  0
 28 75  1  0
 29 76  1  0
 29 77  1  0
 30 78  1  0
 30 79  1  0
 32 80  1  0
 32 81  1  0
 32 82  1  0
M  END
>  <meeko>  (3) 
{"is_sidechain": [false], "intermolecular_energy": 2.731, "internal_energy": -0.839}

$$$$
EPH_relaxed_0001_pdb2pqr_Repair_262_r2_0001_out
     RDKit          3D

 82 86  0  0  0  0  0  0  0  0999 V2000
    2.7120   17.9920   -2.5350 C   0  0  0  0  0  0  0  0  0  0  0  0
    1.3950   17.6260   -1.8450 C   0  0  2  0  0  0  0  0  0  0  0  0
    1.5150   17.6620   -0.3080 C   0  0  0  0  0  0  0  0  0  0  0  0
    1.0600   18.9850    0.3140 C   0  0  0  0  0  0  0  0  0  0  0  0
   -0.4170   19.0000    0.5670 C   0  0  2  0  0  0  0  0  0  0  0  0
   -1.1810   18.1450   -0.2930 O   0  0  0  0  0  0  0  0  0  0  0  0
   -1.4290   19.5550   -0.4180 C   0  0  0  0  0  0  0  0  0  0  0  0
   -1.0040   20.1340   -1.7300 C   0  0  0  0  0  0  0  0  0  0  0  0
   -2.7700   19.9780    0.0960 C   0  0  0  0  0  0  0  0  0  0  0  0
    0.9360   16.2460   -2.2990 C   0  0  1  0  0  0  0  0  0  0  0  0
    1.1290   16.0240   -3.8230 C   0  0  0  0  0  0  0  0  0  0  0  0
    1.5000   14.5300   -4.0140 C   0  0  0  0  0  0  0  0  0  0  0  0
    1.1860   13.8730   -2.6500 C   0  0  1  0  0  0  0  0  0  0  0  0
   -0.3550   13.6230   -2.6710 C   0  0  0  0  0  0  0  0  0  0  0  0
    1.9780   12.5680   -2.3130 C   0  0  2  0  0  0  0  0  0  0  0  0
    1.7250   11.3870   -3.2670 C   0  0  0  0  0  0  0  0  0  0  0  0
    0.6100   10.4760   -2.8730 C   0  0  0  0  0  0  0  0  0  0  0  0
    0.0270   10.4320   -1.6610 C   0  0  0  0  0  0  0  0  0  0  0  0
    0.5510   11.2910   -0.5030 C   0  0  1  0  0  0  0  0  0  0  0  0
    0.6670   10.4210    0.7760 C   0  0  0  0  0  0  0  0  0  0  0  0
   -0.6390    9.7110    1.1210 C   0  0  0  0  0  0  0  0  0  0  0  0
   -1.0980    8.8220   -0.0320 C   0  0  2  0  0  0  0  0  0  0  0  0
   -0.1640    7.7490   -0.1860 O   0  0  0  0  0  0  0  0  0  0  0  0
   -1.2400    9.5880   -1.3770 C   0  0  0  0  0  0  0  0  0  0  0  0
   -2.4560   10.5460   -1.3040 C   0  0  0  0  0  0  0  0  0  0  0  0
   -1.5700    8.5510   -2.4840 C   0  0  0  0  0  0  0  0  0  0  0  0
    1.8750   12.1200   -0.7990 C   0  0  1  0  0  0  0  0  0  0  0  0
    3.1290   11.2410   -0.5080 C   0  0  0  0  0  0  0  0  0  0  0  0
    1.9490   13.3410    0.1930 C   0  0  0  0  0  0  0  0  0  0  0  0
    1.2480   14.6390   -0.2500 C   0  0  0  0  0  0  0  0  0  0  0  0
    1.6500   15.0190   -1.6790 C   0  0  2  0  0  0  0  0  0  0  0  0
    3.1920   15.2980   -1.6840 C   0  0  0  0  0  0  0  0  0  0  0  0
    3.4777   18.2048   -1.7744 H   0  0  0  0  0  0  0  0  0  0  0  0
    3.0427   17.1517   -3.1631 H   0  0  0  0  0  0  0  0  0  0  0  0
    2.5618   18.8824   -3.1631 H   0  0  0  0  0  0  0  0  0  0  0  0
    0.6488   18.3801   -2.1358 H   0  0  0  0  0  0  0  0  0  0  0  0
    0.8973   16.8522    0.1076 H   0  0  0  0  0  0  0  0  0  0  0  0
    2.5814   17.5429   -0.0659 H   0  0  0  0  0  0  0  0  0  0  0  0
    1.5866   19.1297    1.2688 H   0  0  0  0  0  0  0  0  0  0  0  0
    1.2949   19.7946   -0.3926 H   0  0  0  0  0  0  0  0  0  0  0  0
   -0.2548   19.1821    1.6396 H   0  0  0  0  0  0  0  0  0  0  0  0
   -0.3615   21.0093   -1.5536 H   0  0  0  0  0  0  0  0  0  0  0  0
   -0.4449   19.3778   -2.3006 H   0  0  0  0  0  0  0  0  0  0  0  0
   -1.8930   20.4407   -2.3006 H   0  0  0  0  0  0  0  0  0  0  0  0
   -2.7589   19.9745    1.1959 H   0  0  0  0  0  0  0  0  0  0  0  0
   -2.9980   20.9917   -0.2651 H   0  0  0  0  0  0  0  0  0  0  0  0
   -3.5384   19.2786   -0.2651 H   0  0  0  0  0  0  0  0  0  0  0  0
   -0.1112   16.2806   -1.9639 H   0  0  0  0  0  0  0  0  0  0  0  0
    0.1973   16.2547   -4.3604 H   0  0  0  0  0  0  0  0  0  0  0  0
    1.9166   16.6806   -4.2212 H   0  0  0  0  0  0  0  0  0  0  0  0
    0.8925   14.0779   -4.8119 H   0  0  0  0  0  0  0  0  0  0  0  0
    2.5509   14.3956   -4.3098 H   0  0  0  0  0  0  0  0  0  0  0  0
   -0.7307   13.5621   -1.6389 H   0  0  0  0  0  0  0  0  0  0  0  0
   -0.8538   14.4520   -3.1944 H   0  0  0  0  0  0  0  0  0  0  0  0
   -0.5662   12.6789   -3.1944 H   0  0  0  0  0  0  0  0  0  0  0  0
    3.0206   12.8735   -2.4850 H   0  0  0  0  0  0  0  0  0  0  0  0
    1.4937   11.7969   -4.2613 H   0  0  0  0  0  0  0  0  0  0  0  0
    2.6395   10.7761   -3.2438 H   0  0  0  0  0  0  0  0  0  0  0  0
    0.2329    9.7817   -3.6384 H   0  0  0  0  0  0  0  0  0  0  0  0
   -0.1968   12.0829   -0.3491 H   0  0  0  0  0  0  0  0  0  0  0  0
    1.4489    9.6637    0.6176 H   0  0  0  0  0  0  0  0  0  0  0  0
    0.9149   11.0898    1.6134 H   0  0  0  0  0  0  0  0  0  0  0  0
   -0.4855    9.0896    2.0156 H   0  0  0  0  0  0  0  0  0  0  0  0
   -1.4125   10.4704    1.3082 H   0  0  0  0  0  0  0  0  0  0  0  0
   -2.0996    8.4441    0.2209 H   0  0  0  0  0  0  0  0  0  0  0  0
   -0.6110    6.9290    0.0830 H   0  0  0  0  0  0  0  0  0  0  0  0
   -2.7053   10.7424   -0.2508 H   0  0  0  0  0  0  0  0  0  0  0  0
   -2.2071   11.4933   -1.8047 H   0  0  0  0  0  0  0  0  0  0  0  0
   -3.3187   10.0823   -1.8047 H   0  0  0  0  0  0  0  0  0  0  0  0
   -1.8722    7.6013   -2.0184 H   0  0  0  0  0  0  0  0  0  0  0  0
   -2.3917    8.9308   -3.1090 H   0  0  0  0  0  0  0  0  0  0  0  0
   -0.6800    8.3861   -3.1090 H   0  0  0  0  0  0  0  0  0  0  0  0
    3.2654   11.1454    0.5793 H   0  0  0  0  0  0  0  0  0  0  0  0
    2.9877   10.2432   -0.9490 H   0  0  0  0  0  0  0  0  0  0  0  0
    4.0188   11.7141   -0.9490 H   0  0  0  0  0  0  0  0  0  0  0  0
    1.4948   13.0253    1.1438 H   0  0  0  0  0  0  0  0  0  0  0  0
    3.0169   13.5973    0.2550 H   0  0  0  0  0  0  0  0  0  0  0  0
    0.1587   14.4915   -0.2098 H   0  0  0  0  0  0  0  0  0  0  0  0
    1.5518   15.4506    0.4275 H   0  0  0  0  0  0  0  0  0  0  0  0
    3.5561   15.3639   -0.6481 H   0  0  0  0  0  0  0  0  0  0  0  0
    3.7111   14.4792   -2.2037 H   0  0  0  0  0  0  0  0  0  0  0  0
    3.3913   16.2468   -2.2037 H   0  0  0  0  0  0  0  0  0  0  0  0
  1  2  1  0
  2  3  1  0
  3  4  1  0
  4  5  1  0
  5  6  1  0
  6  7  1  0
  7  8  1  0
  7  9  1  0
  2 10  1  0
 10 11  1  0
 11 12  1  0
 12 13  1  0
 13 14  1  6
 13 15  1  0
 15 16  1  0
 16 17  1  0
 17 18  2  0
 18 19  1  0
 19 20  1  0
 20 21  1  0
 21 22  1  0
 22 23  1  0
 22 24  1  0
 24 25  1  0
 24 26  1  0
 19 27  1  0
 27 28  1  1
 27 29  1  0
 29 30  1  0
 30 31  1  0
 31 32  1  1
  7  5  1  0
 31 10  1  0
 31 13  1  0
 27 15  1  0
 24 18  1  0
  1 33  1  0
  1 34  1  0
  1 35  1  0
  2 36  1  6
  3 37  1  0
  3 38  1  0
  4 39  1  0
  4 40  1  0
  5 41  1  1
  8 42  1  0
  8 43  1  0
  8 44  1  0
  9 45  1  0
  9 46  1  0
  9 47  1  0
 10 48  1  6
 11 49  1  0
 11 50  1  0
 12 51  1  0
 12 52  1  0
 14 53  1  0
 14 54  1  0
 14 55  1  0
 15 56  1  1
 16 57  1  0
 16 58  1  0
 17 59  1  0
 19 60  1  1
 20 61  1  0
 20 62  1  0
 21 63  1  0
 21 64  1  0
 22 65  1  1
 23 66  1  0
 25 67  1  0
 25 68  1  0
 25 69  1  0
 26 70  1  0
 26 71  1  0
 26 72  1  0
 28 73  1  0
 28 74  1  0
 28 75  1  0
 29 76  1  0
 29 77  1  0
 30 78  1  0
 30 79  1  0
 32 80  1  0
 32 81  1  0
 32 82  1  0
M  END
>  <meeko>  (4) 
{"is_sidechain": [false], "intermolecular_energy": 2.731, "internal_energy": -0.839}

$$$$
EPH_relaxed_0001_pdb2pqr_Repair_262_r2_0001_out
     RDKit          3D

 82 86  0  0  0  0  0  0  0  0999 V2000
    3.6750   17.5260    0.2310 C   0  0  0  0  0  0  0  0  0  0  0  0
    3.2620   16.7480   -1.0220 C   0  0  2  0  0  0  0  0  0  0  0  0
    2.8010   17.6820   -2.1590 C   0  0  0  0  0  0  0  0  0  0  0  0
    2.1680   18.9860   -1.6660 C   0  0  0  0  0  0  0  0  0  0  0  0
    0.6710   18.9240   -1.7010 C   0  0  2  0  0  0  0  0  0  0  0  0
    0.0230   20.1940   -1.8500 O   0  0  0  0  0  0  0  0  0  0  0  0
   -0.2150   19.5020   -0.6140 C   0  0  0  0  0  0  0  0  0  0  0  0
    0.3650   20.1830    0.5860 C   0  0  0  0  0  0  0  0  0  0  0  0
   -1.6110   18.9790   -0.4750 C   0  0  0  0  0  0  0  0  0  0  0  0
    2.1550   15.7590   -0.6780 C   0  0  1  0  0  0  0  0  0  0  0  0
    0.8610   16.4590   -0.1820 C   0  0  0  0  0  0  0  0  0  0  0  0
   -0.3310   15.6150   -0.6990 C   0  0  0  0  0  0  0  0  0  0  0  0
    0.3080   14.2930   -1.1860 C   0  0  1  0  0  0  0  0  0  0  0  0
    0.5100   13.4450    0.1090 C   0  0  0  0  0  0  0  0  0  0  0  0
   -0.4840   13.5020   -2.2760 C   0  0  2  0  0  0  0  0  0  0  0  0
   -1.8750   13.0060   -1.8420 C   0  0  0  0  0  0  0  0  0  0  0  0
   -1.9040   11.6430   -1.2330 C   0  0  0  0  0  0  0  0  0  0  0  0
   -0.9120   10.7350   -1.2990 C   0  0  0  0  0  0  0  0  0  0  0  0
    0.3510   11.0080   -2.1260 C   0  0  1  0  0  0  0  0  0  0  0  0
    0.6860    9.7600   -2.9850 C   0  0  0  0  0  0  0  0  0  0  0  0
    0.7980    8.4880   -2.1510 C   0  0  0  0  0  0  0  0  0  0  0  0
   -0.4970    8.2200   -1.3890 C   0  0  2  0  0  0  0  0  0  0  0  0
   -1.5310    7.9130   -2.3310 O   0  0  0  0  0  0  0  0  0  0  0  0
   -0.9410    9.4120   -0.4960 C   0  0  0  0  0  0  0  0  0  0  0  0
    0.0270    9.5510    0.7050 C   0  0  0  0  0  0  0  0  0  0  0  0
   -2.3310    9.0670    0.1050 C   0  0  0  0  0  0  0  0  0  0  0  0
    0.3470   12.3510   -2.9750 C   0  0  1  0  0  0  0  0  0  0  0  0
   -0.3170   12.1010   -4.3630 C   0  0  0  0  0  0  0  0  0  0  0  0
    1.8340   12.7790   -3.2660 C   0  0  0  0  0  0  0  0  0  0  0  0
    2.5240   13.6600   -2.2060 C   0  0  0  0  0  0  0  0  0  0  0  0
    1.6370   14.8470   -1.8180 C   0  0  2  0  0  0  0  0  0  0  0  0
    1.4350   15.7310   -3.0960 C   0  0  0  0  0  0  0  0  0  0  0  0
    3.3761   16.9629    1.1274 H   0  0  0  0  0  0  0  0  0  0  0  0
    4.7661   17.6658    0.2328 H   0  0  0  0  0  0  0  0  0  0  0  0
    3.1795   18.5081    0.2328 H   0  0  0  0  0  0  0  0  0  0  0  0
    4.1477   16.2035   -1.3812 H   0  0  0  0  0  0  0  0  0  0  0  0
    3.6748   17.9326   -2.7784 H   0  0  0  0  0  0  0  0  0  0  0  0
    2.0267   17.1425   -2.7242 H   0  0  0  0  0  0  0  0  0  0  0  0
    2.4929   19.1711   -0.6315 H   0  0  0  0  0  0  0  0  0  0  0  0
    2.4930   19.7982   -2.3328 H   0  0  0  0  0  0  0  0  0  0  0  0
    0.6992   17.9350   -2.1818 H   0  0  0  0  0  0  0  0  0  0  0  0
   -0.0320   19.7168    1.4998 H   0  0  0  0  0  0  0  0  0  0  0  0
    1.4604   20.0840    0.5701 H   0  0  0  0  0  0  0  0  0  0  0  0
    0.0929   21.2487    0.5701 H   0  0  0  0  0  0  0  0  0  0  0  0
   -1.8627   18.8847    0.5917 H   0  0  0  0  0  0  0  0  0  0  0  0
   -2.3131   19.6751   -0.9573 H   0  0  0  0  0  0  0  0  0  0  0  0
   -1.6829   17.9930   -0.9573 H   0  0  0  0  0  0  0  0  0  0  0  0
    2.6760   15.1556    0.0800 H   0  0  0  0  0  0  0  0  0  0  0  0
    0.8490   16.4977    0.9173 H   0  0  0  0  0  0  0  0  0  0  0  0
    0.8038   17.4924   -0.5545 H   0  0  0  0  0  0  0  0  0  0  0  0
   -1.0508   15.4232    0.1104 H   0  0  0  0  0  0  0  0  0  0  0  0
   -0.8892   16.1268   -1.4968 H   0  0  0  0  0  0  0  0  0  0  0  0
    0.3581   14.0827    0.9923 H   0  0  0  0  0  0  0  0  0  0  0  0
   -0.2166   12.6192    0.1236 H   0  0  0  0  0  0  0  0  0  0  0  0
    1.5308   13.0355    0.1236 H   0  0  0  0  0  0  0  0  0  0  0  0
   -0.6662   14.2729   -3.0392 H   0  0  0  0  0  0  0  0  0  0  0  0
   -2.2744   13.7169   -1.1037 H   0  0  0  0  0  0  0  0  0  0  0  0
   -2.4760   12.9418   -2.7611 H   0  0  0  0  0  0  0  0  0  0  0  0
   -2.8130   11.3564   -0.6838 H   0  0  0  0  0  0  0  0  0  0  0  0
    1.1575   11.1892   -1.4002 H   0  0  0  0  0  0  0  0  0  0  0  0
   -0.1094    9.6226   -3.7323 H   0  0  0  0  0  0  0  0  0  0  0  0
    1.6626    9.9344   -3.4601 H   0  0  0  0  0  0  0  0  0  0  0  0
    1.0063    7.6378   -2.8172 H   0  0  0  0  0  0  0  0  0  0  0  0
    1.6135    8.6154   -1.4238 H   0  0  0  0  0  0  0  0  0  0  0  0
   -0.3118    7.3733   -0.7117 H   0  0  0  0  0  0  0  0  0  0  0  0
   -1.5750    8.6470   -2.9670 H   0  0  0  0  0  0  0  0  0  0  0  0
   -0.5399    9.4696    1.6442 H   0  0  0  0  0  0  0  0  0  0  0  0
    0.7819    8.7520    0.6619 H   0  0  0  0  0  0  0  0  0  0  0  0
    0.5265   10.5301    0.6619 H   0  0  0  0  0  0  0  0  0  0  0  0
   -2.2697    9.0822    1.2032 H   0  0  0  0  0  0  0  0  0  0  0  0
   -3.0702    9.8089   -0.2313 H   0  0  0  0  0  0  0  0  0  0  0  0
   -2.6375    8.0655   -0.2313 H   0  0  0  0  0  0  0  0  0  0  0  0
   -1.3374   11.7168   -4.2174 H   0  0  0  0  0  0  0  0  0  0  0  0
   -0.3575   13.0454   -4.9255 H   0  0  0  0  0  0  0  0  0  0  0  0
    0.2754   11.3643   -4.9255 H   0  0  0  0  0  0  0  0  0  0  0  0
    2.4295   11.8605   -3.3741 H   0  0  0  0  0  0  0  0  0  0  0  0
    1.7819   13.4038   -4.1698 H   0  0  0  0  0  0  0  0  0  0  0  0
    2.7261   13.0539   -1.3105 H   0  0  0  0  0  0  0  0  0  0  0  0
    3.4628   14.0471   -2.6288 H   0  0  0  0  0  0  0  0  0  0  0  0
    1.1993   16.7624   -2.7949 H   0  0  0  0  0  0  0  0  0  0  0  0
    2.3575   15.7256   -3.6951 H   0  0  0  0  0  0  0  0  0  0  0  0
    0.6064   15.3255   -3.6951 H   0  0  0  0  0  0  0  0  0  0  0  0
  1  2  1  0
  2  3  1  0
  3  4  1  0
  4  5  1  0
  5  6  1  0
  6  7  1  0
  7  8  1  0
  7  9  1  0
  2 10  1  0
 10 11  1  0
 11 12  1  0
 12 13  1  0
 13 14  1  1
 13 15  1  0
 15 16  1  0
 16 17  1  0
 17 18  2  0
 18 19  1  0
 19 20  1  0
 20 21  1  0
 21 22  1  0
 22 23  1  0
 22 24  1  0
 24 25  1  0
 24 26  1  0
 19 27  1  0
 27 28  1  6
 27 29  1  0
 29 30  1  0
 30 31  1  0
 31 32  1  6
  7  5  1  0
 31 10  1  0
 31 13  1  0
 27 15  1  0
 24 18  1  0
  1 33  1  0
  1 34  1  0
  1 35  1  0
  2 36  1  6
  3 37  1  0
  3 38  1  0
  4 39  1  0
  4 40  1  0
  5 41  1  6
  8 42  1  0
  8 43  1  0
  8 44  1  0
  9 45  1  0
  9 46  1  0
  9 47  1  0
 10 48  1  1
 11 49  1  0
 11 50  1  0
 12 51  1  0
 12 52  1  0
 14 53  1  0
 14 54  1  0
 14 55  1  0
 15 56  1  6
 16 57  1  0
 16 58  1  0
 17 59  1  0
 19 60  1  1
 20 61  1  0
 20 62  1  0
 21 63  1  0
 21 64  1  0
 22 65  1  1
 23 66  1  0
 25 67  1  0
 25 68  1  0
 25 69  1  0
 26 70  1  0
 26 71  1  0
 26 72  1  0
 28 73  1  0
 28 74  1  0
 28 75  1  0
 29 76  1  0
 29 77  1  0
 30 78  1  0
 30 79  1  0
 32 80  1  0
 32 81  1  0
 32 82  1  0
M  END
>  <meeko>  (5) 
{"is_sidechain": [false], "intermolecular_energy": 2.731, "internal_energy": -0.839}

$$$$
EPH_relaxed_0001_pdb2pqr_Repair_262_r2_0001_out
     RDKit          3D

 82 86  0  0  0  0  0  0  0  0999 V2000
   -5.1490    5.8510   -1.7490 C   0  0  0  0  0  0  0  0  0  0  0  0
   -5.4540    7.3510   -1.7830 C   0  0  2  0  0  0  0  0  0  0  0  0
   -5.2350    8.0200   -0.4120 C   0  0  0  0  0  0  0  0  0  0  0  0
   -4.1840    9.1320   -0.4300 C   0  0  0  0  0  0  0  0  0  0  0  0
   -2.8280    8.6070   -0.7930 C   0  0  2  0  0  0  0  0  0  0  0  0
   -1.7940    8.9140    0.1510 O   0  0  0  0  0  0  0  0  0  0  0  0
   -1.6540    9.4990   -1.1540 C   0  0  0  0  0  0  0  0  0  0  0  0
   -1.7830   10.9900   -1.1700 C   0  0  0  0  0  0  0  0  0  0  0  0
   -0.5340    8.9170   -1.9580 C   0  0  0  0  0  0  0  0  0  0  0  0
   -6.8870    7.5790   -2.2510 C   0  0  1  0  0  0  0  0  0  0  0  0
   -7.1910    6.8820   -3.6050 C   0  0  0  0  0  0  0  0  0  0  0  0
   -8.6670    6.4110   -3.5430 C   0  0  0  0  0  0  0  0  0  0  0  0
   -9.2560    7.1340   -2.3100 C   0  0  1  0  0  0  0  0  0  0  0  0
   -9.6040    8.5700   -2.8150 C   0  0  0  0  0  0  0  0  0  0  0  0
  -10.4850    6.4490   -1.6290 C   0  0  2  0  0  0  0  0  0  0  0  0
  -11.7370    6.3240   -2.5150 C   0  0  0  0  0  0  0  0  0  0  0  0
  -12.6900    7.4710   -2.4380 C   0  0  0  0  0  0  0  0  0  0  0  0
  -12.6950    8.4200   -1.4840 C   0  0  0  0  0  0  0  0  0  0  0  0
  -11.7340    8.3430   -0.2900 C   0  0  1  0  0  0  0  0  0  0  0  0
  -12.5130    8.6250    1.0210 C   0  0  0  0  0  0  0  0  0  0  0  0
  -13.2810    9.9420    0.9740 C   0  0  0  0  0  0  0  0  0  0  0  0
  -14.2670    9.9580   -0.1910 C   0  0  2  0  0  0  0  0  0  0  0  0
  -15.2870    8.9840    0.0560 O   0  0  0  0  0  0  0  0  0  0  0  0
  -13.5980    9.6760   -1.5650 C   0  0  0  0  0  0  0  0  0  0  0  0
  -12.7160   10.8830   -1.9710 C   0  0  0  0  0  0  0  0  0  0  0  0
  -14.7210    9.5800   -2.6320 C   0  0  0  0  0  0  0  0  0  0  0  0
  -10.8430    7.0300   -0.2010 C   0  0  1  0  0  0  0  0  0  0  0  0
  -11.6210    5.9090    0.5540 C   0  0  0  0  0  0  0  0  0  0  0  0
   -9.5600    7.3360    0.6590 C   0  0  0  0  0  0  0  0  0  0  0  0
   -8.3390    7.9010   -0.0920 C   0  0  0  0  0  0  0  0  0  0  0  0
   -8.0250    7.0630   -1.3350 C   0  0  2  0  0  0  0  0  0  0  0  0
   -7.6500    5.6190   -0.8570 C   0  0  0  0  0  0  0  0  0  0  0  0
   -5.0805    5.5143   -0.7040 H   0  0  0  0  0  0  0  0  0  0  0  0
   -5.9538    5.3015   -2.2593 H   0  0  0  0  0  0  0  0  0  0  0  0
   -4.1935    5.6594   -2.2593 H   0  0  0  0  0  0  0  0  0  0  0  0
   -4.7525    7.8152   -2.4918 H   0  0  0  0  0  0  0  0  0  0  0  0
   -6.1908    8.4511   -0.0795 H   0  0  0  0  0  0  0  0  0  0  0  0
   -4.8657    7.2403    0.2704 H   0  0  0  0  0  0  0  0  0  0  0  0
   -4.4814    9.8917   -1.1678 H   0  0  0  0  0  0  0  0  0  0  0  0
   -4.1253    9.5648    0.5796 H   0  0  0  0  0  0  0  0  0  0  0  0
   -3.2743    7.7356   -1.2945 H   0  0  0  0  0  0  0  0  0  0  0  0
   -1.8156   11.3663   -0.1369 H   0  0  0  0  0  0  0  0  0  0  0  0
   -0.9193   11.4272   -1.6924 H   0  0  0  0  0  0  0  0  0  0  0  0
   -2.7089   11.2723   -1.6924 H   0  0  0  0  0  0  0  0  0  0  0  0
    0.2348    8.5175   -1.2803 H   0  0  0  0  0  0  0  0  0  0  0  0
   -0.9209    8.1059   -2.5923 H   0  0  0  0  0  0  0  0  0  0  0  0
   -0.0926    9.6998   -2.5923 H   0  0  0  0  0  0  0  0  0  0  0  0
   -6.8984    8.6785   -2.2820 H   0  0  0  0  0  0  0  0  0  0  0  0
   -7.0538    7.5905   -4.4352 H   0  0  0  0  0  0  0  0  0  0  0  0
   -6.5119    6.0333   -3.7740 H   0  0  0  0  0  0  0  0  0  0  0  0
   -9.2058    6.7009   -4.4572 H   0  0  0  0  0  0  0  0  0  0  0  0
   -8.7527    5.3171   -3.4654 H   0  0  0  0  0  0  0  0  0  0  0  0
   -9.7647    9.2332   -1.9522 H   0  0  0  0  0  0  0  0  0  0  0  0
   -8.7733    8.9558   -3.4243 H   0  0  0  0  0  0  0  0  0  0  0  0
  -10.5191    8.5327   -3.4243 H   0  0  0  0  0  0  0  0  0  0  0  0
  -10.1251    5.4212   -1.4741 H   0  0  0  0  0  0  0  0  0  0  0  0
  -11.4059    6.2267   -3.5595 H   0  0  0  0  0  0  0  0  0  0  0  0
  -12.2864    5.4464   -2.1434 H   0  0  0  0  0  0  0  0  0  0  0  0
  -13.4521    7.5465   -3.2276 H   0  0  0  0  0  0  0  0  0  0  0  0
  -10.9824    9.1294   -0.4532 H   0  0  0  0  0  0  0  0  0  0  0  0
  -13.2277    7.8060    1.1895 H   0  0  0  0  0  0  0  0  0  0  0  0
  -11.7785    8.6960    1.8368 H   0  0  0  0  0  0  0  0  0  0  0  0
  -13.8347   10.0695    1.9159 H   0  0  0  0  0  0  0  0  0  0  0  0
  -12.5618   10.7628    0.8361 H   0  0  0  0  0  0  0  0  0  0  0  0
  -14.6901   10.9716   -0.2510 H   0  0  0  0  0  0  0  0  0  0  0  0
  -16.1130    9.4630    0.2380 H   0  0  0  0  0  0  0  0  0  0  0  0
  -12.3469   11.3882   -1.0663 H   0  0  0  0  0  0  0  0  0  0  0  0
  -11.8622   10.5291   -2.5675 H   0  0  0  0  0  0  0  0  0  0  0  0
  -13.3126   11.5889   -2.5675 H   0  0  0  0  0  0  0  0  0  0  0  0
  -15.6967    9.4966   -2.1309 H   0  0  0  0  0  0  0  0  0  0  0  0
  -14.7076   10.4826   -3.2606 H   0  0  0  0  0  0  0  0  0  0  0  0
  -14.5546    8.6928   -3.2606 H   0  0  0  0  0  0  0  0  0  0  0  0
  -11.5176    6.0579    1.6390 H   0  0  0  0  0  0  0  0  0  0  0  0
  -12.6849    5.9513    0.2778 H   0  0  0  0  0  0  0  0  0  0  0  0
  -11.2092    4.9271    0.2778 H   0  0  0  0  0  0  0  0  0  0  0  0
   -9.8433    8.0666    1.4310 H   0  0  0  0  0  0  0  0  0  0  0  0
   -9.2333    6.3596    1.0462 H   0  0  0  0  0  0  0  0  0  0  0  0
   -8.5525    8.9353   -0.3997 H   0  0  0  0  0  0  0  0  0  0  0  0
   -7.4688    7.8716    0.5803 H   0  0  0  0  0  0  0  0  0  0  0  0
   -7.6418    5.5873    0.2425 H   0  0  0  0  0  0  0  0  0  0  0  0
   -8.3918    4.9021   -1.2389 H   0  0  0  0  0  0  0  0  0  0  0  0
   -6.6532    5.3536   -1.2389 H   0  0  0  0  0  0  0  0  0  0  0  0
  1  2  1  0
  2  3  1  0
  3  4  1  0
  4  5  1  0
  5  6  1  0
  6  7  1  0
  7  8  1  0
  7  9  1  0
  2 10  1  0
 10 11  1  0
 11 12  1  0
 12 13  1  0
 13 14  1  6
 13 15  1  0
 15 16  1  0
 16 17  1  0
 17 18  2  0
 18 19  1  0
 19 20  1  0
 20 21  1  0
 21 22  1  0
 22 23  1  0
 22 24  1  0
 24 25  1  0
 24 26  1  0
 19 27  1  0
 27 28  1  1
 27 29  1  0
 29 30  1  0
 30 31  1  0
 31 32  1  1
  7  5  1  0
 31 10  1  0
 31 13  1  0
 27 15  1  0
 24 18  1  0
  1 33  1  0
  1 34  1  0
  1 35  1  0
  2 36  1  6
  3 37  1  0
  3 38  1  0
  4 39  1  0
  4 40  1  0
  5 41  1  6
  8 42  1  0
  8 43  1  0
  8 44  1  0
  9 45  1  0
  9 46  1  0
  9 47  1  0
 10 48  1  6
 11 49  1  0
 11 50  1  0
 12 51  1  0
 12 52  1  0
 14 53  1  0
 14 54  1  0
 14 55  1  0
 15 56  1  1
 16 57  1  0
 16 58  1  0
 17 59  1  0
 19 60  1  6
 20 61  1  0
 20 62  1  0
 21 63  1  0
 21 64  1  0
 22 65  1  6
 23 66  1  0
 25 67  1  0
 25 68  1  0
 25 69  1  0
 26 70  1  0
 26 71  1  0
 26 72  1  0
 28 73  1  0
 28 74  1  0
 28 75  1  0
 29 76  1  0
 29 77  1  0
 30 78  1  0
 30 79  1  0
 32 80  1  0
 32 81  1  0
 32 82  1  0
M  END
>  <meeko>  (6) 
{"is_sidechain": [false], "intermolecular_energy": 2.731, "internal_energy": -0.839}

$$$$
EPH_relaxed_0001_pdb2pqr_Repair_262_r2_0001_out
     RDKit          3D

 82 86  0  0  0  0  0  0  0  0999 V2000
   -2.2870   14.6030   -0.5430 C   0  0  0  0  0  0  0  0  0  0  0  0
   -1.0510   15.1780    0.1540 C   0  0  2  0  0  0  0  0  0  0  0  0
   -0.7150   16.6000   -0.3370 C   0  0  0  0  0  0  0  0  0  0  0  0
    0.7780   16.8320   -0.5790 C   0  0  0  0  0  0  0  0  0  0  0  0
    1.2320   18.1480   -0.0240 C   0  0  2  0  0  0  0  0  0  0  0  0
    1.8810   19.0060   -0.9730 O   0  0  0  0  0  0  0  0  0  0  0  0
    2.6920   18.5380    0.1170 C   0  0  0  0  0  0  0  0  0  0  0  0
    3.7910   17.6100   -0.2980 C   0  0  0  0  0  0  0  0  0  0  0  0
    3.0550   19.6060    1.1000 C   0  0  0  0  0  0  0  0  0  0  0  0
    0.1440   14.2560   -0.0640 C   0  0  1  0  0  0  0  0  0  0  0  0
    0.3640   13.2730    1.1160 C   0  0  0  0  0  0  0  0  0  0  0  0
    0.8860   11.9480    0.5030 C   0  0  0  0  0  0  0  0  0  0  0  0
    1.2630   12.3130   -0.9520 C   0  0  1  0  0  0  0  0  0  0  0  0
    2.6750   12.9680   -0.8480 C   0  0  0  0  0  0  0  0  0  0  0  0
    1.2450   11.1400   -1.9850 C   0  0  2  0  0  0  0  0  0  0  0  0
    2.2470   10.0070   -1.7030 C   0  0  0  0  0  0  0  0  0  0  0  0
    3.5890   10.1710   -2.3360 C   0  0  0  0  0  0  0  0  0  0  0  0
    3.8880   11.0340   -3.3250 C   0  0  0  0  0  0  0  0  0  0  0  0
    2.7960   11.8930   -3.9770 C   0  0  1  0  0  0  0  0  0  0  0  0
    2.9450   11.8360   -5.5200 C   0  0  0  0  0  0  0  0  0  0  0  0
    4.3460   12.2200   -5.9870 C   0  0  0  0  0  0  0  0  0  0  0  0
    5.3980   11.3060   -5.3630 C   0  0  2  0  0  0  0  0  0  0  0  0
    5.2230    9.9830   -5.8790 O   0  0  0  0  0  0  0  0  0  0  0  0
    5.3380   11.2740   -3.8100 C   0  0  0  0  0  0  0  0  0  0  0  0
    5.8220   12.6320   -3.2430 C   0  0  0  0  0  0  0  0  0  0  0  0
    6.3550   10.2100   -3.3150 C   0  0  0  0  0  0  0  0  0  0  0  0
    1.3090   11.6060   -3.4960 C   0  0  1  0  0  0  0  0  0  0  0  0
    0.6890   10.4530   -4.3440 C   0  0  0  0  0  0  0  0  0  0  0  0
    0.4260   12.8810   -3.7670 C   0  0  0  0  0  0  0  0  0  0  0  0
    0.3900   13.9490   -2.6570 C   0  0  0  0  0  0  0  0  0  0  0  0
    0.1000   13.3140   -1.2940 C   0  0  2  0  0  0  0  0  0  0  0  0
   -1.3250   12.6660   -1.3610 C   0  0  0  0  0  0  0  0  0  0  0  0
   -3.0111   14.2662    0.2135 H   0  0  0  0  0  0  0  0  0  0  0  0
   -2.7478   15.3792   -1.1716 H   0  0  0  0  0  0  0  0  0  0  0  0
   -1.9901   13.7505   -1.1716 H   0  0  0  0  0  0  0  0  0  0  0  0
   -1.2786   15.2455    1.2281 H   0  0  0  0  0  0  0  0  0  0  0  0
   -1.2511   16.7769   -1.2811 H   0  0  0  0  0  0  0  0  0  0  0  0
   -1.0230   17.2951    0.4580 H   0  0  0  0  0  0  0  0  0  0  0  0
    1.3472   16.0253   -0.0941 H   0  0  0  0  0  0  0  0  0  0  0  0
    0.9520   16.8397   -1.6651 H   0  0  0  0  0  0  0  0  0  0  0  0
    0.3918   18.1654    0.6858 H   0  0  0  0  0  0  0  0  0  0  0  0
    4.2798   17.1972    0.5968 H   0  0  0  0  0  0  0  0  0  0  0  0
    3.3709   16.7892   -0.8979 H   0  0  0  0  0  0  0  0  0  0  0  0
    4.5298   18.1617   -0.8979 H   0  0  0  0  0  0  0  0  0  0  0  0
    2.9247   19.2226    2.1228 H   0  0  0  0  0  0  0  0  0  0  0  0
    4.1040   19.9013    0.9500 H   0  0  0  0  0  0  0  0  0  0  0  0
    2.4032   20.4793    0.9500 H   0  0  0  0  0  0  0  0  0  0  0  0
    0.9359   15.0084   -0.1939 H   0  0  0  0  0  0  0  0  0  0  0  0
    1.1049   13.6834    1.8178 H   0  0  0  0  0  0  0  0  0  0  0  0
   -0.5702   13.1093    1.6731 H   0  0  0  0  0  0  0  0  0  0  0  0
    1.7670   11.5861    1.0533 H   0  0  0  0  0  0  0  0  0  0  0  0
    0.1377   11.1431    0.5506 H   0  0  0  0  0  0  0  0  0  0  0  0
    2.9442   13.0929    0.2112 H   0  0  0  0  0  0  0  0  0  0  0  0
    3.4162   12.3218   -1.3409 H   0  0  0  0  0  0  0  0  0  0  0  0
    2.6603   13.9513   -1.3409 H   0  0  0  0  0  0  0  0  0  0  0  0
    0.2480   10.7026   -1.8281 H   0  0  0  0  0  0  0  0  0  0  0  0
    2.3902    9.9429   -0.6142 H   0  0  0  0  0  0  0  0  0  0  0  0
    1.8113    9.0984   -2.1440 H   0  0  0  0  0  0  0  0  0  0  0  0
    4.4029    9.5322   -1.9625 H   0  0  0  0  0  0  0  0  0  0  0  0
    2.9656   12.9208   -3.6236 H   0  0  0  0  0  0  0  0  0  0  0  0
    2.7292   10.8115   -5.8575 H   0  0  0  0  0  0  0  0  0  0  0  0
    2.2389   12.5612   -5.9507 H   0  0  0  0  0  0  0  0  0  0  0  0
    4.3971   12.1326   -7.0823 H   0  0  0  0  0  0  0  0  0  0  0  0
    4.5494   13.2548   -5.6742 H   0  0  0  0  0  0  0  0  0  0  0  0
    6.3861   11.7090   -5.6301 H   0  0  0  0  0  0  0  0  0  0  0  0
    5.9040    9.8400   -6.5580 H   0  0  0  0  0  0  0  0  0  0  0  0
    5.8091   12.5959   -2.1437 H   0  0  0  0  0  0  0  0  0  0  0  0
    6.8463   12.8307   -3.5914 H   0  0  0  0  0  0  0  0  0  0  0  0
    5.1543   13.4337   -3.5914 H   0  0  0  0  0  0  0  0  0  0  0  0
    6.3667   10.1977   -2.2151 H   0  0  0  0  0  0  0  0  0  0  0  0
    6.0601    9.2187   -3.6896 H   0  0  0  0  0  0  0  0  0  0  0  0
    7.3586   10.4599   -3.6896 H   0  0  0  0  0  0  0  0  0  0  0  0
    0.2762    9.6854   -3.6729 H   0  0  0  0  0  0  0  0  0  0  0  0
   -0.1143   10.8556   -4.9786 H   0  0  0  0  0  0  0  0  0  0  0  0
    1.4678   10.0049   -4.9786 H   0  0  0  0  0  0  0  0  0  0  0  0
    0.8073   13.3622   -4.6797 H   0  0  0  0  0  0  0  0  0  0  0  0
   -0.6058   12.5067   -3.8403 H   0  0  0  0  0  0  0  0  0  0  0  0
    1.3639   14.4588   -2.6165 H   0  0  0  0  0  0  0  0  0  0  0  0
   -0.4112   14.6667   -2.8870 H   0  0  0  0  0  0  0  0  0  0  0  0
   -1.6988   12.4960   -0.3405 H   0  0  0  0  0  0  0  0  0  0  0  0
   -2.0101   13.3411   -1.8948 H   0  0  0  0  0  0  0  0  0  0  0  0
   -1.2665   11.7060   -1.8948 H   0  0  0  0  0  0  0  0  0  0  0  0
  1  2  1  0
  2  3  1  0
  3  4  1  0
  4  5  1  0
  5  6  1  0
  6  7  1  0
  7  8  1  0
  7  9  1  0
  2 10  1  0
 10 11  1  0
 11 12  1  0
 12 13  1  0
 13 14  1  1
 13 15  1  0
 15 16  1  0
 16 17  1  0
 17 18  2  0
 18 19  1  0
 19 20  1  0
 20 21  1  0
 21 22  1  0
 22 23  1  0
 22 24  1  0
 24 25  1  0
 24 26  1  0
 19 27  1  0
 27 28  1  6
 27 29  1  0
 29 30  1  0
 30 31  1  0
 31 32  1  6
  7  5  1  0
 31 10  1  0
 31 13  1  0
 27 15  1  0
 24 18  1  0
  1 33  1  0
  1 34  1  0
  1 35  1  0
  2 36  1  1
  3 37  1  0
  3 38  1  0
  4 39  1  0
  4 40  1  0
  5 41  1  1
  8 42  1  0
  8 43  1  0
  8 44  1  0
  9 45  1  0
  9 46  1  0
  9 47  1  0
 10 48  1  6
 11 49  1  0
 11 50  1  0
 12 51  1  0
 12 52  1  0
 14 53  1  0
 14 54  1  0
 14 55  1  0
 15 56  1  6
 16 57  1  0
 16 58  1  0
 17 59  1  0
 19 60  1  1
 20 61  1  0
 20 62  1  0
 21 63  1  0
 21 64  1  0
 22 65  1  1
 23 66  1  0
 25 67  1  0
 25 68  1  0
 25 69  1  0
 26 70  1  0
 26 71  1  0
 26 72  1  0
 28 73  1  0
 28 74  1  0
 28 75  1  0
 29 76  1  0
 29 77  1  0
 30 78  1  0
 30 79  1  0
 32 80  1  0
 32 81  1  0
 32 82  1  0
M  END
>  <meeko>  (7) 
{"is_sidechain": [false], "intermolecular_energy": 2.731, "internal_energy": -0.839}

$$$$
EPH_relaxed_0001_pdb2pqr_Repair_262_r2_0001_out
     RDKit          3D

 82 86  0  0  0  0  0  0  0  0999 V2000
    0.3580    9.1110   -2.7780 C   0  0  0  0  0  0  0  0  0  0  0  0
    1.2430   10.1440   -3.4820 C   0  0  2  0  0  0  0  0  0  0  0  0
    2.7260   10.0050   -3.0840 C   0  0  0  0  0  0  0  0  0  0  0  0
    3.6900   10.7010   -4.0480 C   0  0  0  0  0  0  0  0  0  0  0  0
    5.0570   10.8520   -3.4530 C   0  0  2  0  0  0  0  0  0  0  0  0
    5.7330   12.0660   -3.8060 O   0  0  0  0  0  0  0  0  0  0  0  0
    6.3320   10.8480   -4.2750 C   0  0  0  0  0  0  0  0  0  0  0  0
    6.3010   10.6880   -5.7630 C   0  0  0  0  0  0  0  0  0  0  0  0
    7.6210   10.5090   -3.5940 C   0  0  0  0  0  0  0  0  0  0  0  0
    0.7490   11.5510   -3.1670 C   0  0  1  0  0  0  0  0  0  0  0  0
   -0.7870   11.6110   -2.9530 C   0  0  0  0  0  0  0  0  0  0  0  0
   -1.0440   12.6830   -1.8630 C   0  0  0  0  0  0  0  0  0  0  0  0
    0.3020   13.4320   -1.7260 C   0  0  1  0  0  0  0  0  0  0  0  0
    0.3140   14.4540   -2.9060 C   0  0  0  0  0  0  0  0  0  0  0  0
    0.5670   14.1320   -0.3540 C   0  0  2  0  0  0  0  0  0  0  0  0
   -0.4230   15.2520    0.0100 C   0  0  0  0  0  0  0  0  0  0  0  0
   -0.0340   16.6200   -0.4450 C   0  0  0  0  0  0  0  0  0  0  0  0
    1.1920   16.9850   -0.8640 C   0  0  0  0  0  0  0  0  0  0  0  0
    2.3660   16.0000   -0.8180 C   0  0  1  0  0  0  0  0  0  0  0  0
    3.6080   16.7020   -0.2080 C   0  0  0  0  0  0  0  0  0  0  0  0
    3.9610   17.9980   -0.9310 C   0  0  0  0  0  0  0  0  0  0  0  0
    2.7890   18.9750   -0.9060 C   0  0  2  0  0  0  0  0  0  0  0  0
    2.5680   19.3940    0.4450 O   0  0  0  0  0  0  0  0  0  0  0  0
    1.4780   18.3740   -1.4870 C   0  0  0  0  0  0  0  0  0  0  0  0
    1.6210   18.2000   -3.0190 C   0  0  0  0  0  0  0  0  0  0  0  0
    0.3420   19.4100   -1.2720 C   0  0  0  0  0  0  0  0  0  0  0  0
    2.0660   14.5940   -0.1400 C   0  0  1  0  0  0  0  0  0  0  0  0
    2.2880   14.6880    1.4000 C   0  0  0  0  0  0  0  0  0  0  0  0
    3.1000   13.5340   -0.6740 C   0  0  0  0  0  0  0  0  0  0  0  0
    2.7260   12.7900   -1.9700 C   0  0  0  0  0  0  0  0  0  0  0  0
    1.3020   12.2300   -1.8900 C   0  0  2  0  0  0  0  0  0  0  0  0
    1.2650   11.1830   -0.7250 C   0  0  0  0  0  0  0  0  0  0  0  0
    0.4563    9.2257   -1.6884 H   0  0  0  0  0  0  0  0  0  0  0  0
   -0.6910    9.2670   -3.0700 H   0  0  0  0  0  0  0  0  0  0  0  0
    0.6731    8.0984   -3.0700 H   0  0  0  0  0  0  0  0  0  0  0  0
    1.1728    9.9584   -4.5640 H   0  0  0  0  0  0  0  0  0  0  0  0
    2.8594   10.4423   -2.0835 H   0  0  0  0  0  0  0  0  0  0  0  0
    2.9661    8.9318   -3.1086 H   0  0  0  0  0  0  0  0  0  0  0  0
    3.7661   10.1040   -4.9688 H   0  0  0  0  0  0  0  0  0  0  0  0
    3.2960   11.7058   -4.2607 H   0  0  0  0  0  0  0  0  0  0  0  0
    4.7548   10.2900   -2.5570 H   0  0  0  0  0  0  0  0  0  0  0  0
    6.0973    9.6367   -6.0146 H   0  0  0  0  0  0  0  0  0  0  0  0
    5.5097   11.3257   -6.1839 H   0  0  0  0  0  0  0  0  0  0  0  0
    7.2732   10.9840   -6.1839 H   0  0  0  0  0  0  0  0  0  0  0  0
    7.4804   10.5460   -2.5036 H   0  0  0  0  0  0  0  0  0  0  0  0
    7.9365    9.4973   -3.8889 H   0  0  0  0  0  0  0  0  0  0  0  0
    8.3934   11.2346   -3.8889 H   0  0  0  0  0  0  0  0  0  0  0  0
    1.1137   12.0783   -4.0608 H   0  0  0  0  0  0  0  0  0  0  0  0
   -1.2893   11.8948   -3.8896 H   0  0  0  0  0  0  0  0  0  0  0  0
   -1.1819   10.6316   -2.6452 H   0  0  0  0  0  0  0  0  0  0  0  0
   -1.8416   13.3724   -2.1770 H   0  0  0  0  0  0  0  0  0  0  0  0
   -1.3728   12.2395   -0.9116 H   0  0  0  0  0  0  0  0  0  0  0  0
    0.3260   15.4779   -2.5042 H   0  0  0  0  0  0  0  0  0  0  0  0
    1.2103   14.2916   -3.5227 H   0  0  0  0  0  0  0  0  0  0  0  0
   -0.5859   14.3127   -3.5227 H   0  0  0  0  0  0  0  0  0  0  0  0
    0.3771   13.3206    0.3640 H   0  0  0  0  0  0  0  0  0  0  0  0
   -1.3950   15.0068   -0.4428 H   0  0  0  0  0  0  0  0  0  0  0  0
   -0.4464   15.2921    1.1090 H   0  0  0  0  0  0  0  0  0  0  0  0
   -0.8150   17.3946   -0.4371 H   0  0  0  0  0  0  0  0  0  0  0  0
    2.5697   15.7218   -1.8626 H   0  0  0  0  0  0  0  0  0  0  0  0
    3.4001   16.9323    0.8473 H   0  0  0  0  0  0  0  0  0  0  0  0
    4.4631   16.0179   -0.3121 H   0  0  0  0  0  0  0  0  0  0  0  0
    4.8267   18.4619   -0.4356 H   0  0  0  0  0  0  0  0  0  0  0  0
    4.1977   17.7614   -1.9789 H   0  0  0  0  0  0  0  0  0  0  0  0
    3.0554   19.8271   -1.5486 H   0  0  0  0  0  0  0  0  0  0  0  0
    2.7760   18.6420    1.0240 H   0  0  0  0  0  0  0  0  0  0  0  0
    2.3063   17.3661   -3.2309 H   0  0  0  0  0  0  0  0  0  0  0  0
    0.6352   17.9849   -3.4572 H   0  0  0  0  0  0  0  0  0  0  0  0
    2.0230   19.1254   -3.4572 H   0  0  0  0  0  0  0  0  0  0  0  0
    0.1798   19.5579   -0.1941 H   0  0  0  0  0  0  0  0  0  0  0  0
    0.6258   20.3667   -1.7348 H   0  0  0  0  0  0  0  0  0  0  0  0
   -0.5846   19.0395   -1.7348 H   0  0  0  0  0  0  0  0  0  0  0  0
    1.3967   14.3106    1.9226 H   0  0  0  0  0  0  0  0  0  0  0  0
    3.1622   14.0828    1.6821 H   0  0  0  0  0  0  0  0  0  0  0  0
    2.4618   15.7369    1.6821 H   0  0  0  0  0  0  0  0  0  0  0  0
    4.0506   14.0576   -0.8535 H   0  0  0  0  0  0  0  0  0  0  0  0
    3.1414   12.7560    0.1026 H   0  0  0  0  0  0  0  0  0  0  0  0
    2.7908   13.4885   -2.8173 H   0  0  0  0  0  0  0  0  0  0  0  0
    3.4251   11.9519   -2.1073 H   0  0  0  0  0  0  0  0  0  0  0  0
    1.2836   11.7086    0.2411 H   0  0  0  0  0  0  0  0  0  0  0  0
    0.3451   10.5844   -0.7991 H   0  0  0  0  0  0  0  0  0  0  0  0
    2.1403   10.5209   -0.7991 H   0  0  0  0  0  0  0  0  0  0  0  0
  1  2  1  0
  2  3  1  0
  3  4  1  0
  4  5  1  0
  5  6  1  0
  6  7  1  0
  7  8  1  0
  7  9  1  0
  2 10  1  0
 10 11  1  0
 11 12  1  0
 12 13  1  0
 13 14  1  6
 13 15  1  0
 15 16  1  0
 16 17  1  0
 17 18  2  0
 18 19  1  0
 19 20  1  0
 20 21  1  0
 21 22  1  0
 22 23  1  0
 22 24  1  0
 24 25  1  0
 24 26  1  0
 19 27  1  0
 27 28  1  1
 27 29  1  0
 29 30  1  0
 30 31  1  0
 31 32  1  1
  7  5  1  0
 31 10  1  0
 31 13  1  0
 27 15  1  0
 24 18  1  0
  1 33  1  0
  1 34  1  0
  1 35  1  0
  2 36  1  6
  3 37  1  0
  3 38  1  0
  4 39  1  0
  4 40  1  0
  5 41  1  1
  8 42  1  0
  8 43  1  0
  8 44  1  0
  9 45  1  0
  9 46  1  0
  9 47  1  0
 10 48  1  6
 11 49  1  0
 11 50  1  0
 12 51  1  0
 12 52  1  0
 14 53  1  0
 14 54  1  0
 14 55  1  0
 15 56  1  1
 16 57  1  0
 16 58  1  0
 17 59  1  0
 19 60  1  6
 20 61  1  0
 20 62  1  0
 21 63  1  0
 21 64  1  0
 22 65  1  6
 23 66  1  0
 25 67  1  0
 25 68  1  0
 25 69  1  0
 26 70  1  0
 26 71  1  0
 26 72  1  0
 28 73  1  0
 28 74  1  0
 28 75  1  0
 29 76  1  0
 29 77  1  0
 30 78  1  0
 30 79  1  0
 32 80  1  0
 32 81  1  0
 32 82  1  0
M  END
>  <meeko>  (8) 
{"is_sidechain": [false], "intermolecular_energy": 2.731, "internal_energy": -0.839}

$$$$
EPH_relaxed_0001_pdb2pqr_Repair_262_r2_0001_out
     RDKit          3D

 82 86  0  0  0  0  0  0  0  0999 V2000
   -0.4530   16.0890   -5.8410 C   0  0  0  0  0  0  0  0  0  0  0  0
    0.8030   15.4150   -6.4000 C   0  0  2  0  0  0  0  0  0  0  0  0
    0.7790   15.3270   -7.9390 C   0  0  0  0  0  0  0  0  0  0  0  0
    1.8100   16.2290   -8.6230 C   0  0  0  0  0  0  0  0  0  0  0  0
    1.6740   16.1940  -10.1150 C   0  0  2  0  0  0  0  0  0  0  0  0
    1.0640   15.0050  -10.6330 O   0  0  0  0  0  0  0  0  0  0  0  0
    2.4340   15.2260  -11.0020 C   0  0  0  0  0  0  0  0  0  0  0  0
    3.3880   14.2260  -10.4280 C   0  0  0  0  0  0  0  0  0  0  0  0
    2.6210   15.5740  -12.4460 C   0  0  0  0  0  0  0  0  0  0  0  0
    0.9560   14.0220   -5.8010 C   0  0  1  0  0  0  0  0  0  0  0  0
    2.3390   13.3880   -6.1070 C   0  0  0  0  0  0  0  0  0  0  0  0
    2.7290   12.5440   -4.8660 C   0  0  0  0  0  0  0  0  0  0  0  0
    1.4280   12.4500   -4.0350 C   0  0  1  0  0  0  0  0  0  0  0  0
    0.6040   11.3080   -4.7080 C   0  0  0  0  0  0  0  0  0  0  0  0
    1.6060   12.2060   -2.5000 C   0  0  2  0  0  0  0  0  0  0  0  0
    2.2850   10.8770   -2.1250 C   0  0  0  0  0  0  0  0  0  0  0  0
    1.3590    9.7250   -1.9160 C   0  0  0  0  0  0  0  0  0  0  0  0
    0.0270    9.8120   -1.7450 C   0  0  0  0  0  0  0  0  0  0  0  0
   -0.6670   11.1770   -1.6540 C   0  0  1  0  0  0  0  0  0  0  0  0
   -1.6570   11.1760   -0.4590 C   0  0  0  0  0  0  0  0  0  0  0  0
   -2.6490   10.0190   -0.5230 C   0  0  0  0  0  0  0  0  0  0  0  0
   -1.9220    8.6770   -0.5540 C   0  0  2  0  0  0  0  0  0  0  0  0
   -1.2610    8.4820    0.7000 O   0  0  0  0  0  0  0  0  0  0  0  0
   -0.8910    8.5660   -1.7110 C   0  0  0  0  0  0  0  0  0  0  0  0
   -1.6370    8.4740   -3.0660 C   0  0  0  0  0  0  0  0  0  0  0  0
   -0.1290    7.2230   -1.5440 C   0  0  0  0  0  0  0  0  0  0  0  0
    0.2920   12.4440   -1.6500 C   0  0  1  0  0  0  0  0  0  0  0  0
    0.7550   12.7570   -0.1940 C   0  0  0  0  0  0  0  0  0  0  0  0
   -0.5170   13.7030   -2.1390 C   0  0  0  0  0  0  0  0  0  0  0  0
   -0.5550   13.9570   -3.6580 C   0  0  0  0  0  0  0  0  0  0  0  0
    0.8520   13.8950   -4.2600 C   0  0  2  0  0  0  0  0  0  0  0  0
    1.6990   15.0460   -3.6180 C   0  0  0  0  0  0  0  0  0  0  0  0
   -0.4201   16.0714   -4.7416 H   0  0  0  0  0  0  0  0  0  0  0  0
   -0.4959   17.1313   -6.1899 H   0  0  0  0  0  0  0  0  0  0  0  0
   -1.3453   15.5485   -6.1899 H   0  0  0  0  0  0  0  0  0  0  0  0
    1.6652   16.0374   -6.1185 H   0  0  0  0  0  0  0  0  0  0  0  0
    0.9808   14.2857   -8.2305 H   0  0  0  0  0  0  0  0  0  0  0  0
   -0.2143   15.6691   -8.2652 H   0  0  0  0  0  0  0  0  0  0  0  0
    1.6652   17.2627   -8.2760 H   0  0  0  0  0  0  0  0  0  0  0  0
    2.8136   15.8623   -8.3615 H   0  0  0  0  0  0  0  0  0  0  0  0
    1.5484   17.2862  -10.1524 H   0  0  0  0  0  0  0  0  0  0  0  0
    3.3472   14.2688   -9.3296 H   0  0  0  0  0  0  0  0  0  0  0  0
    3.1092   13.2171  -10.7662 H   0  0  0  0  0  0  0  0  0  0  0  0
    4.4089   14.4570  -10.7662 H   0  0  0  0  0  0  0  0  0  0  0  0
    3.1403   16.5404  -12.5260 H   0  0  0  0  0  0  0  0  0  0  0  0
    3.2212   14.7935  -12.9365 H   0  0  0  0  0  0  0  0  0  0  0  0
    1.6389   15.6438  -12.9365 H   0  0  0  0  0  0  0  0  0  0  0  0
    0.1008   13.5215   -6.2786 H   0  0  0  0  0  0  0  0  0  0  0  0
    2.2722   12.7447   -6.9968 H   0  0  0  0  0  0  0  0  0  0  0  0
    3.0925   14.1632   -6.3099 H   0  0  0  0  0  0  0  0  0  0  0  0
    3.0699   11.5429   -5.1685 H   0  0  0  0  0  0  0  0  0  0  0  0
    3.5559   12.9947   -4.2976 H   0  0  0  0  0  0  0  0  0  0  0  0
    0.1488   10.6771   -3.9304 H   0  0  0  0  0  0  0  0  0  0  0  0
   -0.1871   11.7466   -5.3340 H   0  0  0  0  0  0  0  0  0  0  0  0
    1.2696   10.6955   -5.3340 H   0  0  0  0  0  0  0  0  0  0  0  0
    2.3177   12.9952   -2.2161 H   0  0  0  0  0  0  0  0  0  0  0  0
    2.9814   10.6110   -2.9338 H   0  0  0  0  0  0  0  0  0  0  0  0
    2.7791   11.0499   -1.1575 H   0  0  0  0  0  0  0  0  0  0  0  0
    1.8034    8.7189   -1.9004 H   0  0  0  0  0  0  0  0  0  0  0  0
   -1.2196   11.3001   -2.5971 H   0  0  0  0  0  0  0  0  0  0  0  0
   -1.0820   11.0963    0.4754 H   0  0  0  0  0  0  0  0  0  0  0  0
   -2.2326   12.1124   -0.5012 H   0  0  0  0  0  0  0  0  0  0  0  0
   -3.3010   10.0547    0.3622 H   0  0  0  0  0  0  0  0  0  0  0  0
   -3.2435   10.1172   -1.4433 H   0  0  0  0  0  0  0  0  0  0  0  0
   -2.6768    7.8966   -0.7307 H   0  0  0  0  0  0  0  0  0  0  0  0
   -0.4080    8.9470    0.6590 H   0  0  0  0  0  0  0  0  0  0  0  0
   -2.7136    8.3412   -2.8836 H   0  0  0  0  0  0  0  0  0  0  0  0
   -1.4734    9.3991   -3.6382 H   0  0  0  0  0  0  0  0  0  0  0  0
   -1.2536    7.6163   -3.6382 H   0  0  0  0  0  0  0  0  0  0  0  0
   -0.0041    7.0029   -0.4735 H   0  0  0  0  0  0  0  0  0  0  0  0
   -0.7028    6.4142   -2.0201 H   0  0  0  0  0  0  0  0  0  0  0  0
    0.8596    7.3007   -2.0201 H   0  0  0  0  0  0  0  0  0  0  0  0
    0.0617   12.2883    0.5200 H   0  0  0  0  0  0  0  0  0  0  0  0
    1.7679   12.3576   -0.0375 H   0  0  0  0  0  0  0  0  0  0  0  0
    0.7619   13.8458   -0.0375 H   0  0  0  0  0  0  0  0  0  0  0  0
   -1.5553   13.5856   -1.7951 H   0  0  0  0  0  0  0  0  0  0  0  0
    0.0137   14.5685   -1.7156 H   0  0  0  0  0  0  0  0  0  0  0  0
   -1.1845   13.1915   -4.1351 H   0  0  0  0  0  0  0  0  0  0  0  0
   -0.9682   14.9609   -3.8353 H   0  0  0  0  0  0  0  0  0  0  0  0
    1.6453   14.9731   -2.5217 H   0  0  0  0  0  0  0  0  0  0  0  0
    2.7466   14.9542   -3.9407 H   0  0  0  0  0  0  0  0  0  0  0  0
    1.2998   16.0189   -3.9407 H   0  0  0  0  0  0  0  0  0  0  0  0
  1  2  1  0
  2  3  1  0
  3  4  1  0
  4  5  1  0
  5  6  1  0
  6  7  1  0
  7  8  1  0
  7  9  1  0
  2 10  1  0
 10 11  1  0
 11 12  1  0
 12 13  1  0
 13 14  1  6
 13 15  1  0
 15 16  1  0
 16 17  1  0
 17 18  2  0
 18 19  1  0
 19 20  1  0
 20 21  1  0
 21 22  1  0
 22 23  1  0
 22 24  1  0
 24 25  1  0
 24 26  1  0
 19 27  1  0
 27 28  1  1
 27 29  1  0
 29 30  1  0
 30 31  1  0
 31 32  1  1
  7  5  1  0
 31 10  1  0
 31 13  1  0
 27 15  1  0
 24 18  1  0
  1 33  1  0
  1 34  1  0
  1 35  1  0
  2 36  1  6
  3 37  1  0
  3 38  1  0
  4 39  1  0
  4 40  1  0
  5 41  1  6
  8 42  1  0
  8 43  1  0
  8 44  1  0
  9 45  1  0
  9 46  1  0
  9 47  1  0
 10 48  1  6
 11 49  1  0
 11 50  1  0
 12 51  1  0
 12 52  1  0
 14 53  1  0
 14 54  1  0
 14 55  1  0
 15 56  1  1
 16 57  1  0
 16 58  1  0
 17 59  1  0
 19 60  1  6
 20 61  1  0
 20 62  1  0
 21 63  1  0
 21 64  1  0
 22 65  1  6
 23 66  1  0
 25 67  1  0
 25 68  1  0
 25 69  1  0
 26 70  1  0
 26 71  1  0
 26 72  1  0
 28 73  1  0
 28 74  1  0
 28 75  1  0
 29 76  1  0
 29 77  1  0
 30 78  1  0
 30 79  1  0
 32 80  1  0
 32 81  1  0
 32 82  1  0
M  END
>  <meeko>  (9) 
{"is_sidechain": [false], "intermolecular_energy": 2.731, "internal_energy": -0.839}

$$$$
EPH_relaxed_0001_pdb2pqr_Repair_262_r2_0001_out
     RDKit          3D

 82 86  0  0  0  0  0  0  0  0999 V2000
   -1.6530    9.5640   -1.9770 C   0  0  0  0  0  0  0  0  0  0  0  0
   -1.7190    9.7050   -0.4530 C   0  0  2  0  0  0  0  0  0  0  0  0
   -3.1710    9.7570    0.0630 C   0  0  0  0  0  0  0  0  0  0  0  0
   -4.0170    8.5530   -0.3580 C   0  0  0  0  0  0  0  0  0  0  0  0
   -5.2920    8.9770   -1.0230 C   0  0  2  0  0  0  0  0  0  0  0  0
   -6.4700    8.3260   -0.5300 O   0  0  0  0  0  0  0  0  0  0  0  0
   -6.1240    8.0590   -1.8990 C   0  0  0  0  0  0  0  0  0  0  0  0
   -5.7130    6.6430   -2.1580 C   0  0  0  0  0  0  0  0  0  0  0  0
   -7.0640    8.6730   -2.8890 C   0  0  0  0  0  0  0  0  0  0  0  0
   -0.9640   10.9540   -0.0140 C   0  0  1  0  0  0  0  0  0  0  0  0
   -0.1370   10.7280    1.2790 C   0  0  0  0  0  0  0  0  0  0  0  0
    1.1490   11.5830    1.1420 C   0  0  0  0  0  0  0  0  0  0  0  0
    0.8690   12.5200   -0.0560 C   0  0  1  0  0  0  0  0  0  0  0  0
    0.0090   13.6810    0.5340 C   0  0  0  0  0  0  0  0  0  0  0  0
    2.1230   13.0600   -0.8190 C   0  0  2  0  0  0  0  0  0  0  0  0
    3.0670   13.9390    0.0190 C   0  0  0  0  0  0  0  0  0  0  0  0
    2.7690   15.4020   -0.0080 C   0  0  0  0  0  0  0  0  0  0  0  0
    1.9670   16.0200   -0.8950 C   0  0  0  0  0  0  0  0  0  0  0  0
    1.3390   15.2470   -2.0620 C   0  0  1  0  0  0  0  0  0  0  0  0
    1.5160   16.0550   -3.3740 C   0  0  0  0  0  0  0  0  0  0  0  0
    0.9780   17.4790   -3.2610 C   0  0  0  0  0  0  0  0  0  0  0  0
    1.6670   18.2340   -2.1270 C   0  0  2  0  0  0  0  0  0  0  0  0
    3.0440   18.4220   -2.4700 O   0  0  0  0  0  0  0  0  0  0  0  0
    1.5640   17.5090   -0.7560 C   0  0  0  0  0  0  0  0  0  0  0  0
    0.1040   17.5710   -0.2430 C   0  0  0  0  0  0  0  0  0  0  0  0
    2.4190   18.3020    0.2690 C   0  0  0  0  0  0  0  0  0  0  0  0
    1.7940   13.7310   -2.2140 C   0  0  1  0  0  0  0  0  0  0  0  0
    3.0970   13.6490   -3.0660 C   0  0  0  0  0  0  0  0  0  0  0  0
    0.6910   12.9410   -3.0120 C   0  0  0  0  0  0  0  0  0  0  0  0
   -0.4590   12.3290   -2.1890 C   0  0  0  0  0  0  0  0  0  0  0  0
    0.0830   11.5350   -0.9970 C   0  0  2  0  0  0  0  0  0  0  0  0
    0.9350   10.3470   -1.5600 C   0  0  0  0  0  0  0  0  0  0  0  0
   -1.1998    8.5958   -2.2364 H   0  0  0  0  0  0  0  0  0  0  0  0
   -2.6693    9.6167   -2.3945 H   0  0  0  0  0  0  0  0  0  0  0  0
   -1.0425   10.3782   -2.3945 H   0  0  0  0  0  0  0  0  0  0  0  0
   -1.2463    8.8127   -0.0168 H   0  0  0  0  0  0  0  0  0  0  0  0
   -3.1478    9.7979    1.1620 H   0  0  0  0  0  0  0  0  0  0  0  0
   -3.6380   10.6488   -0.3803 H   0  0  0  0  0  0  0  0  0  0  0  0
   -3.4361    7.9372   -1.0605 H   0  0  0  0  0  0  0  0  0  0  0  0
   -4.2750    7.9821    0.5461 H   0  0  0  0  0  0  0  0  0  0  0  0
   -4.8989    9.9920   -1.1820 H   0  0  0  0  0  0  0  0  0  0  0  0
   -5.5623    6.1239   -1.2000 H   0  0  0  0  0  0  0  0  0  0  0  0
   -6.4999    6.1320   -2.7322 H   0  0  0  0  0  0  0  0  0  0  0  0
   -4.7748    6.6327   -2.7322 H   0  0  0  0  0  0  0  0  0  0  0  0
   -7.8685    9.1985   -2.3536 H   0  0  0  0  0  0  0  0  0  0  0  0
   -6.5160    9.3878   -3.5204 H   0  0  0  0  0  0  0  0  0  0  0  0
   -7.4983    7.8839   -3.5204 H   0  0  0  0  0  0  0  0  0  0  0  0
   -1.8077   11.6519    0.0914 H   0  0  0  0  0  0  0  0  0  0  0  0
   -0.7138   11.0495    2.1587 H   0  0  0  0  0  0  0  0  0  0  0  0
    0.1082    9.6637    1.4103 H   0  0  0  0  0  0  0  0  0  0  0  0
    1.3270   12.1660    2.0576 H   0  0  0  0  0  0  0  0  0  0  0  0
    2.0460   10.9653    0.9876 H   0  0  0  0  0  0  0  0  0  0  0  0
    0.0403   13.6387    1.6327 H   0  0  0  0  0  0  0  0  0  0  0  0
    0.4120   14.6459    0.1926 H   0  0  0  0  0  0  0  0  0  0  0  0
   -1.0315   13.5767    0.1926 H   0  0  0  0  0  0  0  0  0  0  0  0
    2.6842   12.1385   -1.0332 H   0  0  0  0  0  0  0  0  0  0  0  0
    3.0091   13.5997    1.0638 H   0  0  0  0  0  0  0  0  0  0  0  0
    4.0658   13.8239   -0.4273 H   0  0  0  0  0  0  0  0  0  0  0  0
    3.2449   16.0273    0.7617 H   0  0  0  0  0  0  0  0  0  0  0  0
    0.2694   15.1527   -1.8231 H   0  0  0  0  0  0  0  0  0  0  0  0
    2.5876   16.1012   -3.6179 H   0  0  0  0  0  0  0  0  0  0  0  0
    0.9435   15.5431   -4.1615 H   0  0  0  0  0  0  0  0  0  0  0  0
    1.1589   18.0084   -4.2081 H   0  0  0  0  0  0  0  0  0  0  0  0
   -0.0999   17.4312   -3.0470 H   0  0  0  0  0  0  0  0  0  0  0  0
    1.1506   19.1982   -2.0104 H   0  0  0  0  0  0  0  0  0  0  0  0
    3.1050   19.2300   -3.0070 H   0  0  0  0  0  0  0  0  0  0  0  0
    0.1016   17.5711    0.8570 H   0  0  0  0  0  0  0  0  0  0  0  0
   -0.3752   18.4903   -0.6108 H   0  0  0  0  0  0  0  0  0  0  0  0
   -0.4514   16.6956   -0.6108 H   0  0  0  0  0  0  0  0  0  0  0  0
    2.1189   18.0237    1.2900 H   0  0  0  0  0  0  0  0  0  0  0  0
    3.4827   18.0636    0.1216 H   0  0  0  0  0  0  0  0  0  0  0  0
    2.2612   19.3806    0.1216 H   0  0  0  0  0  0  0  0  0  0  0  0
    3.9691   13.5941   -2.3979 H   0  0  0  0  0  0  0  0  0  0  0  0
    3.0642   12.7511   -3.7006 H   0  0  0  0  0  0  0  0  0  0  0  0
    3.1770   14.5439   -3.7006 H   0  0  0  0  0  0  0  0  0  0  0  0
    0.2461   13.6351   -3.7402 H   0  0  0  0  0  0  0  0  0  0  0  0
    1.2164   12.0819   -3.4546 H   0  0  0  0  0  0  0  0  0  0  0  0
   -1.1064   13.1375   -1.8185 H   0  0  0  0  0  0  0  0  0  0  0  0
   -1.0287   11.6458   -2.8360 H   0  0  0  0  0  0  0  0  0  0  0  0
    1.3516    9.7661   -0.7240 H   0  0  0  0  0  0  0  0  0  0  0  0
    0.2960    9.6969   -2.1757 H   0  0  0  0  0  0  0  0  0  0  0  0
    1.7557   10.7438   -2.1757 H   0  0  0  0  0  0  0  0  0  0  0  0
  1  2  1  0
  2  3  1  0
  3  4  1  0
  4  5  1  0
  5  6  1  0
  6  7  1  0
  7  8  1  0
  7  9  1  0
  2 10  1  0
 10 11  1  0
 11 12  1  0
 12 13  1  0
 13 14  1  1
 13 15  1  0
 15 16  1  0
 16 17  1  0
 17 18  2  0
 18 19  1  0
 19 20  1  0
 20 21  1  0
 21 22  1  0
 22 23  1  0
 22 24  1  0
 24 25  1  0
 24 26  1  0
 19 27  1  0
 27 28  1  6
 27 29  1  0
 29 30  1  0
 30 31  1  0
 31 32  1  6
  7  5  1  0
 31 10  1  0
 31 13  1  0
 27 15  1  0
 24 18  1  0
  1 33  1  0
  1 34  1  0
  1 35  1  0
  2 36  1  1
  3 37  1  0
  3 38  1  0
  4 39  1  0
  4 40  1  0
  5 41  1  6
  8 42  1  0
  8 43  1  0
  8 44  1  0
  9 45  1  0
  9 46  1  0
  9 47  1  0
 10 48  1  1
 11 49  1  0
 11 50  1  0
 12 51  1  0
 12 52  1  0
 14 53  1  0
 14 54  1  0
 14 55  1  0
 15 56  1  6
 16 57  1  0
 16 58  1  0
 17 59  1  0
 19 60  1  1
 20 61  1  0
 20 62  1  0
 21 63  1  0
 21 64  1  0
 22 65  1  1
 23 66  1  0
 25 67  1  0
 25 68  1  0
 25 69  1  0
 26 70  1  0
 26 71  1  0
 26 72  1  0
 28 73  1  0
 28 74  1  0
 28 75  1  0
 29 76  1  0
 29 77  1  0
 30 78  1  0
 30 79  1  0
 32 80  1  0
 32 81  1  0
 32 82  1  0
M  END
>  <meeko>  (10) 
{"is_sidechain": [false], "intermolecular_energy": 2.731, "internal_energy": -0.839}

$$$$
EPH_relaxed_0001_pdb2pqr_Repair_262_r2_0001_out
     RDKit          3D

 82 86  0  0  0  0  0  0  0  0999 V2000
   -4.1130    7.3820   -3.5630 C   0  0  0  0  0  0  0  0  0  0  0  0
   -3.7550    7.2600   -2.0800 C   0  0  2  0  0  0  0  0  0  0  0  0
   -4.9560    6.8010   -1.2280 C   0  0  0  0  0  0  0  0  0  0  0  0
   -6.2190    6.5200   -2.0460 C   0  0  0  0  0  0  0  0  0  0  0  0
   -7.4170    6.3240   -1.1670 C   0  0  2  0  0  0  0  0  0  0  0  0
   -8.4880    5.5880   -1.7710 O   0  0  0  0  0  0  0  0  0  0  0  0
   -8.7680    6.9580   -1.4410 C   0  0  0  0  0  0  0  0  0  0  0  0
   -8.9900    7.8380   -2.6310 C   0  0  0  0  0  0  0  0  0  0  0  0
   -9.7260    7.1210   -0.3020 C   0  0  0  0  0  0  0  0  0  0  0  0
   -3.2270    8.5930   -1.5610 C   0  0  1  0  0  0  0  0  0  0  0  0
   -3.8650    9.0020   -0.2070 C   0  0  0  0  0  0  0  0  0  0  0  0
   -2.7650    9.7360    0.6020 C   0  0  0  0  0  0  0  0  0  0  0  0
   -1.6460   10.0170   -0.4280 C   0  0  1  0  0  0  0  0  0  0  0  0
   -2.1150   11.2960   -1.1910 C   0  0  0  0  0  0  0  0  0  0  0  0
   -0.2020   10.1870    0.1480 C   0  0  2  0  0  0  0  0  0  0  0  0
   -0.0180   11.3760    1.1070 C   0  0  0  0  0  0  0  0  0  0  0  0
    0.3930   12.6580    0.4610 C   0  0  0  0  0  0  0  0  0  0  0  0
    0.8800   12.7830   -0.7880 C   0  0  0  0  0  0  0  0  0  0  0  0
    1.1530   11.5470   -1.6550 C   0  0  1  0  0  0  0  0  0  0  0  0
    2.5510   11.6760   -2.3160 C   0  0  0  0  0  0  0  0  0  0  0  0
    2.7130   12.9800   -3.0910 C   0  0  0  0  0  0  0  0  0  0  0  0
    2.4920   14.1860   -2.1820 C   0  0  2  0  0  0  0  0  0  0  0  0
    3.5470   14.2360   -1.2170 O   0  0  0  0  0  0  0  0  0  0  0  0
    1.1190   14.1610   -1.4530 C   0  0  0  0  0  0  0  0  0  0  0  0
   -0.0170   14.4100   -2.4760 C   0  0  0  0  0  0  0  0  0  0  0  0
    1.0820   15.3560   -0.4630 C   0  0  0  0  0  0  0  0  0  0  0  0
    0.9410   10.1420   -0.9440 C   0  0  1  0  0  0  0  0  0  0  0  0
    2.2470    9.7170   -0.2050 C   0  0  0  0  0  0  0  0  0  0  0  0
    0.6770    9.0450   -2.0430 C   0  0  0  0  0  0  0  0  0  0  0  0
   -0.7850    8.8430   -2.4840 C   0  0  0  0  0  0  0  0  0  0  0  0
   -1.7090    8.6920   -1.2710 C   0  0  2  0  0  0  0  0  0  0  0  0
   -1.2740    7.4010   -0.4970 C   0  0  0  0  0  0  0  0  0  0  0  0
   -5.1500    7.7354   -3.6620 H   0  0  0  0  0  0  0  0  0  0  0  0
   -3.4335    8.0993   -4.0464 H   0  0  0  0  0  0  0  0  0  0  0  0
   -4.0129    6.3990   -4.0464 H   0  0  0  0  0  0  0  0  0  0  0  0
   -2.9739    6.4906   -1.9906 H   0  0  0  0  0  0  0  0  0  0  0  0
   -4.6736    5.8796   -0.6976 H   0  0  0  0  0  0  0  0  0  0  0  0
   -5.1955    7.6249   -0.5396 H   0  0  0  0  0  0  0  0  0  0  0  0
   -6.4052    7.3709   -2.7178 H   0  0  0  0  0  0  0  0  0  0  0  0
   -6.0582    5.5941   -2.6176 H   0  0  0  0  0  0  0  0  0  0  0  0
   -6.7831    6.2975   -0.2684 H   0  0  0  0  0  0  0  0  0  0  0  0
   -9.2461    8.8532   -2.2936 H   0  0  0  0  0  0  0  0  0  0  0  0
   -8.0727    7.8735   -3.2370 H   0  0  0  0  0  0  0  0  0  0  0  0
   -9.8144    7.4341   -3.2370 H   0  0  0  0  0  0  0  0  0  0  0  0
   -9.1828    7.0286    0.6501 H   0  0  0  0  0  0  0  0  0  0  0  0
  -10.1989    8.1125   -0.3596 H   0  0  0  0  0  0  0  0  0  0  0  0
  -10.5002    6.3417   -0.3596 H   0  0  0  0  0  0  0  0  0  0  0  0
   -3.4903    9.2391   -2.4114 H   0  0  0  0  0  0  0  0  0  0  0  0
   -4.7202    9.6723   -0.3783 H   0  0  0  0  0  0  0  0  0  0  0  0
   -4.2343    8.1207    0.3379 H   0  0  0  0  0  0  0  0  0  0  0  0
   -3.1529   10.6765    1.0204 H   0  0  0  0  0  0  0  0  0  0  0  0
   -2.4072    9.1409    1.4551 H   0  0  0  0  0  0  0  0  0  0  0  0
   -2.3996   12.0722   -0.4653 H   0  0  0  0  0  0  0  0  0  0  0  0
   -1.2947   11.6677   -1.8226 H   0  0  0  0  0  0  0  0  0  0  0  0
   -2.9811   11.0492   -1.8226 H   0  0  0  0  0  0  0  0  0  0  0  0
   -0.0870    9.2845    0.7663 H   0  0  0  0  0  0  0  0  0  0  0  0
   -0.9738   11.5469    1.6240 H   0  0  0  0  0  0  0  0  0  0  0  0
    0.8044   11.0980    1.7826 H   0  0  0  0  0  0  0  0  0  0  0  0
    0.2892   13.5776    1.0556 H   0  0  0  0  0  0  0  0  0  0  0  0
    0.3733   11.5411   -2.4309 H   0  0  0  0  0  0  0  0  0  0  0  0
    3.3184   11.6358   -1.5289 H   0  0  0  0  0  0  0  0  0  0  0  0
    2.6605   10.8469   -3.0305 H   0  0  0  0  0  0  0  0  0  0  0  0
    3.7292   13.0261   -3.5095 H   0  0  0  0  0  0  0  0  0  0  0  0
    1.9639   13.0053   -3.8961 H   0  0  0  0  0  0  0  0  0  0  0  0
    2.4930   15.0828   -2.8190 H   0  0  0  0  0  0  0  0  0  0  0  0
    3.1800   14.6100   -0.3980 H   0  0  0  0  0  0  0  0  0  0  0  0
   -0.9550   14.6156   -1.9395 H   0  0  0  0  0  0  0  0  0  0  0  0
    0.2409   15.2729   -3.1075 H   0  0  0  0  0  0  0  0  0  0  0  0
   -0.1437   13.5183   -3.1075 H   0  0  0  0  0  0  0  0  0  0  0  0
    1.0937   14.9772    0.5696 H   0  0  0  0  0  0  0  0  0  0  0  0
    1.9607   15.9966   -0.6285 H   0  0  0  0  0  0  0  0  0  0  0  0
    0.1653   15.9410   -0.6285 H   0  0  0  0  0  0  0  0  0  0  0  0
    2.0867    9.7691    0.8820 H   0  0  0  0  0  0  0  0  0  0  0  0
    2.5098    8.6870   -0.4879 H   0  0  0  0  0  0  0  0  0  0  0  0
    3.0656   10.3951   -0.4879 H   0  0  0  0  0  0  0  0  0  0  0  0
    1.2588    9.3205   -2.9350 H   0  0  0  0  0  0  0  0  0  0  0  0
    0.9717    8.0932   -1.5769 H   0  0  0  0  0  0  0  0  0  0  0  0
   -1.1061    9.7137   -3.0745 H   0  0  0  0  0  0  0  0  0  0  0  0
   -0.8454    7.9248   -3.0868 H   0  0  0  0  0  0  0  0  0  0  0  0
   -1.3358    7.5844    0.5858 H   0  0  0  0  0  0  0  0  0  0  0  0
   -1.9415    6.5694   -0.7667 H   0  0  0  0  0  0  0  0  0  0  0  0
   -0.2393    7.1429   -0.7667 H   0  0  0  0  0  0  0  0  0  0  0  0
  1  2  1  0
  2  3  1  0
  3  4  1  0
  4  5  1  0
  5  6  1  0
  6  7  1  0
  7  8  1  0
  7  9  1  0
  2 10  1  0
 10 11  1  0
 11 12  1  0
 12 13  1  0
 13 14  1  6
 13 15  1  0
 15 16  1  0
 16 17  1  0
 17 18  2  0
 18 19  1  0
 19 20  1  0
 20 21  1  0
 21 22  1  0
 22 23  1  0
 22 24  1  0
 24 25  1  0
 24 26  1  0
 19 27  1  0
 27 28  1  1
 27 29  1  0
 29 30  1  0
 30 31  1  0
 31 32  1  1
  7  5  1  0
 31 10  1  0
 31 13  1  0
 27 15  1  0
 24 18  1  0
  1 33  1  0
  1 34  1  0
  1 35  1  0
  2 36  1  6
  3 37  1  0
  3 38  1  0
  4 39  1  0
  4 40  1  0
  5 41  1  1
  8 42  1  0
  8 43  1  0
  8 44  1  0
  9 45  1  0
  9 46  1  0
  9 47  1  0
 10 48  1  6
 11 49  1  0
 11 50  1  0
 12 51  1  0
 12 52  1  0
 14 53  1  0
 14 54  1  0
 14 55  1  0
 15 56  1  1
 16 57  1  0
 16 58  1  0
 17 59  1  0
 19 60  1  6
 20 61  1  0
 20 62  1  0
 21 63  1  0
 21 64  1  0
 22 65  1  6
 23 66  1  0
 25 67  1  0
 25 68  1  0
 25 69  1  0
 26 70  1  0
 26 71  1  0
 26 72  1  0
 28 73  1  0
 28 74  1  0
 28 75  1  0
 29 76  1  0
 29 77  1  0
 30 78  1  0
 30 79  1  0
 32 80  1  0
 32 81  1  0
 32 82  1  0
M  END
>  <meeko>  (11) 
{"is_sidechain": [false], "intermolecular_energy": 2.731, "internal_energy": -0.839}

$$$$
EPH_relaxed_0001_pdb2pqr_Repair_262_r2_0001_out
     RDKit          3D

 82 86  0  0  0  0  0  0  0  0999 V2000
    3.4240   18.2400   -3.3930 C   0  0  0  0  0  0  0  0  0  0  0  0
    2.3020   17.9210   -2.4010 C   0  0  2  0  0  0  0  0  0  0  0  0
    2.1960   18.9780   -1.2830 C   0  0  0  0  0  0  0  0  0  0  0  0
    1.0320   19.9550   -1.4680 C   0  0  0  0  0  0  0  0  0  0  0  0
   -0.2910   19.2910   -1.2330 C   0  0  2  0  0  0  0  0  0  0  0  0
   -1.3950   20.1940   -1.0820 O   0  0  0  0  0  0  0  0  0  0  0  0
   -1.0620   19.4010    0.0690 C   0  0  0  0  0  0  0  0  0  0  0  0
   -0.5350   20.1940    1.2230 C   0  0  0  0  0  0  0  0  0  0  0  0
   -2.0770   18.3480    0.3900 C   0  0  0  0  0  0  0  0  0  0  0  0
    2.5230   16.5410   -1.7930 C   0  0  1  0  0  0  0  0  0  0  0  0
    3.2510   16.6010   -0.4240 C   0  0  0  0  0  0  0  0  0  0  0  0
    2.6670   15.4560    0.4440 C   0  0  0  0  0  0  0  0  0  0  0  0
    1.8740   14.5770   -0.5520 C   0  0  1  0  0  0  0  0  0  0  0  0
    2.9500   13.6780   -1.2390 C   0  0  0  0  0  0  0  0  0  0  0  0
    0.7100   13.7260    0.0520 C   0  0  2  0  0  0  0  0  0  0  0  0
    1.1420   12.6710    1.0850 C   0  0  0  0  0  0  0  0  0  0  0  0
    1.4620   11.3240    0.5260 C   0  0  0  0  0  0  0  0  0  0  0  0
    1.1350   10.8910   -0.7050 C   0  0  0  0  0  0  0  0  0  0  0  0
    0.2850   11.7560   -1.6450 C   0  0  1  0  0  0  0  0  0  0  0  0
   -0.8330   10.8870   -2.2790 C   0  0  0  0  0  0  0  0  0  0  0  0
   -0.2860    9.6410   -2.9680 C   0  0  0  0  0  0  0  0  0  0  0  0
    0.5040    8.7780   -1.9880 C   0  0  2  0  0  0  0  0  0  0  0  0
   -0.3970    8.2510   -1.0080 O   0  0  0  0  0  0  0  0  0  0  0  0
    1.6530    9.5490   -1.2800 C   0  0  0  0  0  0  0  0  0  0  0  0
    2.7770    9.8580   -2.2990 C   0  0  0  0  0  0  0  0  0  0  0  0
    2.2770    8.6050   -0.2170 C   0  0  0  0  0  0  0  0  0  0  0  0
   -0.2710   13.1100   -1.0270 C   0  0  1  0  0  0  0  0  0  0  0  0
   -1.6240   12.8470   -0.2990 C   0  0  0  0  0  0  0  0  0  0  0  0
   -0.5830   14.1180   -2.1960 C   0  0  0  0  0  0  0  0  0  0  0  0
    0.5760   15.0160   -2.6670 C   0  0  0  0  0  0  0  0  0  0  0  0
    1.2650   15.6930   -1.4780 C   0  0  2  0  0  0  0  0  0  0  0  0
    0.2130   16.6210   -0.7810 C   0  0  0  0  0  0  0  0  0  0  0  0
    4.3389   18.5001   -2.8405 H   0  0  0  0  0  0  0  0  0  0  0  0
    3.6152   17.3606   -4.0256 H   0  0  0  0  0  0  0  0  0  0  0  0
    3.1239   19.0884   -4.0256 H   0  0  0  0  0  0  0  0  0  0  0  0
    1.3540   17.9348   -2.9588 H   0  0  0  0  0  0  0  0  0  0  0  0
    2.0626   18.4566   -0.3237 H   0  0  0  0  0  0  0  0  0  0  0  0
    3.1217   19.5715   -1.3130 H   0  0  0  0  0  0  0  0  0  0  0  0
    1.1462   20.7848   -0.7550 H   0  0  0  0  0  0  0  0  0  0  0  0
    1.0528   20.3211   -2.5051 H   0  0  0  0  0  0  0  0  0  0  0  0
    0.0077   18.4255   -1.8427 H   0  0  0  0  0  0  0  0  0  0  0  0
   -0.8486   19.7221    2.1658 H   0  0  0  0  0  0  0  0  0  0  0  0
    0.5636   20.2244    1.1758 H   0  0  0  0  0  0  0  0  0  0  0  0
   -0.9325   21.2186    1.1758 H   0  0  0  0  0  0  0  0  0  0  0  0
   -2.1713   18.2502    1.4816 H   0  0  0  0  0  0  0  0  0  0  0  0
   -3.0493   18.6334   -0.0379 H   0  0  0  0  0  0  0  0  0  0  0  0
   -1.7561   17.3868   -0.0379 H   0  0  0  0  0  0  0  0  0  0  0  0
    3.0992   16.0721   -2.6042 H   0  0  0  0  0  0  0  0  0  0  0  0
    4.3325   16.4567   -0.5635 H   0  0  0  0  0  0  0  0  0  0  0  0
    3.1031   17.5779    0.0595 H   0  0  0  0  0  0  0  0  0  0  0  0
    3.4739   14.8764    0.9163 H   0  0  0  0  0  0  0  0  0  0  0  0
    2.0356   15.8330    1.2620 H   0  0  0  0  0  0  0  0  0  0  0  0
    3.5529   13.1743   -0.4690 H   0  0  0  0  0  0  0  0  0  0  0  0
    2.4517   12.9239   -1.8660 H   0  0  0  0  0  0  0  0  0  0  0  0
    3.6035   14.3024   -1.8660 H   0  0  0  0  0  0  0  0  0  0  0  0
    0.1354   14.4774    0.6135 H   0  0  0  0  0  0  0  0  0  0  0  0
    2.0384   13.0468    1.6000 H   0  0  0  0  0  0  0  0  0  0  0  0
    0.2788   12.5265    1.7513 H   0  0  0  0  0  0  0  0  0  0  0  0
    2.0115   10.6268    1.1756 H   0  0  0  0  0  0  0  0  0  0  0  0
    0.9680   12.1152   -2.4289 H   0  0  0  0  0  0  0  0  0  0  0  0
   -1.5290   10.5748   -1.4864 H   0  0  0  0  0  0  0  0  0  0  0  0
   -1.3368   11.4970   -3.0433 H   0  0  0  0  0  0  0  0  0  0  0  0
   -1.1252    9.0538   -3.3692 H   0  0  0  0  0  0  0  0  0  0  0  0
    0.3864    9.9554   -3.7798 H   0  0  0  0  0  0  0  0  0  0  0  0
    0.9781    7.9717   -2.5669 H   0  0  0  0  0  0  0  0  0  0  0  0
    0.1380    7.8810   -0.2860 H   0  0  0  0  0  0  0  0  0  0  0  0
    3.7013   10.1121   -1.7595 H   0  0  0  0  0  0  0  0  0  0  0  0
    2.9522    8.9747   -2.9307 H   0  0  0  0  0  0  0  0  0  0  0  0
    2.4760   10.7067   -2.9307 H   0  0  0  0  0  0  0  0  0  0  0  0
    2.0328    8.9744    0.7899 H   0  0  0  0  0  0  0  0  0  0  0  0
    1.8709    7.5906   -0.3439 H   0  0  0  0  0  0  0  0  0  0  0  0
    3.3694    8.5811   -0.3439 H   0  0  0  0  0  0  0  0  0  0  0  0
   -1.4668   12.8776    0.7893 H   0  0  0  0  0  0  0  0  0  0  0  0
   -2.3514   13.6206   -0.5863 H   0  0  0  0  0  0  0  0  0  0  0  0
   -2.0086   11.8573   -0.5863 H   0  0  0  0  0  0  0  0  0  0  0  0
   -0.9207   13.5293   -3.0617 H   0  0  0  0  0  0  0  0  0  0  0  0
   -1.3345   14.8093   -1.7868 H   0  0  0  0  0  0  0  0  0  0  0  0
    1.3114   14.4008   -3.2061 H   0  0  0  0  0  0  0  0  0  0  0  0
    0.1686   15.7965   -3.3264 H   0  0  0  0  0  0  0  0  0  0  0  0
    0.3128   16.5330    0.3109 H   0  0  0  0  0  0  0  0  0  0  0  0
    0.3879   17.6644   -1.0822 H   0  0  0  0  0  0  0  0  0  0  0  0
   -0.8004   16.3173   -1.0822 H   0  0  0  0  0  0  0  0  0  0  0  0
  1  2  1  0
  2  3  1  0
  3  4  1  0
  4  5  1  0
  5  6  1  0
  6  7  1  0
  7  8  1  0
  7  9  1  0
  2 10  1  0
 10 11  1  0
 11 12  1  0
 12 13  1  0
 13 14  1  6
 13 15  1  0
 15 16  1  0
 16 17  1  0
 17 18  2  0
 18 19  1  0
 19 20  1  0
 20 21  1  0
 21 22  1  0
 22 23  1  0
 22 24  1  0
 24 25  1  0
 24 26  1  0
 19 27  1  0
 27 28  1  1
 27 29  1  0
 29 30  1  0
 30 31  1  0
 31 32  1  1
  7  5  1  0
 31 10  1  0
 31 13  1  0
 27 15  1  0
 24 18  1  0
  1 33  1  0
  1 34  1  0
  1 35  1  0
  2 36  1  6
  3 37  1  0
  3 38  1  0
  4 39  1  0
  4 40  1  0
  5 41  1  6
  8 42  1  0
  8 43  1  0
  8 44  1  0
  9 45  1  0
  9 46  1  0
  9 47  1  0
 10 48  1  6
 11 49  1  0
 11 50  1  0
 12 51  1  0
 12 52  1  0
 14 53  1  0
 14 54  1  0
 14 55  1  0
 15 56  1  1
 16 57  1  0
 16 58  1  0
 17 59  1  0
 19 60  1  6
 20 61  1  0
 20 62  1  0
 21 63  1  0
 21 64  1  0
 22 65  1  6
 23 66  1  0
 25 67  1  0
 25 68  1  0
 25 69  1  0
 26 70  1  0
 26 71  1  0
 26 72  1  0
 28 73  1  0
 28 74  1  0
 28 75  1  0
 29 76  1  0
 29 77  1  0
 30 78  1  0
 30 79  1  0
 32 80  1  0
 32 81  1  0
 32 82  1  0
M  END
>  <meeko>  (12) 
{"is_sidechain": [false], "intermolecular_energy": 2.731, "internal_energy": -0.839}

$$$$
EPH_relaxed_0001_pdb2pqr_Repair_262_r2_0001_out
     RDKit          3D

 82 86  0  0  0  0  0  0  0  0999 V2000
    1.6890   19.3680   -2.0780 C   0  0  0  0  0  0  0  0  0  0  0  0
    0.7670   18.3600   -1.3870 C   0  0  2  0  0  0  0  0  0  0  0  0
    0.6420   18.6290    0.1260 C   0  0  0  0  0  0  0  0  0  0  0  0
    1.3280   19.9200    0.5810 C   0  0  0  0  0  0  0  0  0  0  0  0
    2.8110   19.7440    0.7080 C   0  0  2  0  0  0  0  0  0  0  0  0
    3.2150   18.5950    1.4640 O   0  0  0  0  0  0  0  0  0  0  0  0
    3.5590   19.8740    2.0220 C   0  0  0  0  0  0  0  0  0  0  0  0
    2.8450   20.1920    3.2980 C   0  0  0  0  0  0  0  0  0  0  0  0
    5.0250   20.1730    1.9840 C   0  0  0  0  0  0  0  0  0  0  0  0
    1.2750   16.9430   -1.6240 C   0  0  1  0  0  0  0  0  0  0  0  0
    2.8240   16.8490   -1.5780 C   0  0  0  0  0  0  0  0  0  0  0  0
    3.1700   15.4720   -0.9530 C   0  0  0  0  0  0  0  0  0  0  0  0
    1.8350   14.6910   -0.9680 C   0  0  1  0  0  0  0  0  0  0  0  0
    1.7090   14.1400   -2.4230 C   0  0  0  0  0  0  0  0  0  0  0  0
    1.6890   13.5530    0.0940 C   0  0  2  0  0  0  0  0  0  0  0  0
    2.6990   12.4000   -0.0410 C   0  0  0  0  0  0  0  0  0  0  0  0
    2.2590   11.2650   -0.9050 C   0  0  0  0  0  0  0  0  0  0  0  0
    0.9980   11.0390   -1.3170 C   0  0  0  0  0  0  0  0  0  0  0  0
   -0.1600   11.9190   -0.8300 C   0  0  1  0  0  0  0  0  0  0  0  0
   -1.3470   11.0200   -0.3960 C   0  0  0  0  0  0  0  0  0  0  0  0
   -1.7740   10.0470   -1.4900 C   0  0  0  0  0  0  0  0  0  0  0  0
   -0.6120    9.1490   -1.9060 C   0  0  2  0  0  0  0  0  0  0  0  0
   -0.2740    8.2940   -0.8100 O   0  0  0  0  0  0  0  0  0  0  0  0
    0.6460    9.9450   -2.3550 C   0  0  0  0  0  0  0  0  0  0  0  0
    0.3680   10.6350   -3.7130 C   0  0  0  0  0  0  0  0  0  0  0  0
    1.7890    8.9260   -2.6120 C   0  0  0  0  0  0  0  0  0  0  0  0
    0.2120   13.0110    0.2640 C   0  0  1  0  0  0  0  0  0  0  0  0
    0.1280   12.3850    1.6890 C   0  0  0  0  0  0  0  0  0  0  0  0
   -0.8580   14.1650    0.2220 C   0  0  0  0  0  0  0  0  0  0  0  0
   -0.5960   15.3200   -0.7630 C   0  0  0  0  0  0  0  0  0  0  0  0
    0.8340   15.8510   -0.6180 C   0  0  2  0  0  0  0  0  0  0  0  0
    0.9840   16.4320    0.8290 C   0  0  0  0  0  0  0  0  0  0  0  0
    2.2258   19.9548   -1.3181 H   0  0  0  0  0  0  0  0  0  0  0  0
    2.4146   18.8305   -2.7062 H   0  0  0  0  0  0  0  0  0  0  0  0
    1.0891   20.0429   -2.7062 H   0  0  0  0  0  0  0  0  0  0  0  0
   -0.2351   18.4737   -1.8261 H   0  0  0  0  0  0  0  0  0  0  0  0
   -0.4263   18.6955    0.3797 H   0  0  0  0  0  0  0  0  0  0  0  0
    1.1455   17.7985    0.6425 H   0  0  0  0  0  0  0  0  0  0  0  0
    1.1246   20.7108   -0.1561 H   0  0  0  0  0  0  0  0  0  0  0  0
    0.9287   20.1908    1.5695 H   0  0  0  0  0  0  0  0  0  0  0  0
    2.9734   20.1965   -0.2814 H   0  0  0  0  0  0  0  0  0  0  0  0
    3.4779   19.9101    4.1524 H   0  0  0  0  0  0  0  0  0  0  0  0
    2.6315   21.2703    3.3398 H   0  0  0  0  0  0  0  0  0  0  0  0
    1.9007   19.6294    3.3398 H   0  0  0  0  0  0  0  0  0  0  0  0
    5.4100   20.2515    3.0114 H   0  0  0  0  0  0  0  0  0  0  0  0
    5.5507   19.3636    1.4563 H   0  0  0  0  0  0  0  0  0  0  0  0
    5.1918   21.1236    1.4563 H   0  0  0  0  0  0  0  0  0  0  0  0
    0.8267   16.7490   -2.6096 H   0  0  0  0  0  0  0  0  0  0  0  0
    3.2381   16.9184   -2.5947 H   0  0  0  0  0  0  0  0  0  0  0  0
    3.2523   17.6708   -0.9853 H   0  0  0  0  0  0  0  0  0  0  0  0
    3.9307   14.9526   -1.5543 H   0  0  0  0  0  0  0  0  0  0  0  0
    3.5869   15.5665    0.0605 H   0  0  0  0  0  0  0  0  0  0  0  0
    1.4639   13.0682   -2.3892 H   0  0  0  0  0  0  0  0  0  0  0  0
    0.9116   14.6820   -2.9526 H   0  0  0  0  0  0  0  0  0  0  0  0
    2.6627   14.2815   -2.9526 H   0  0  0  0  0  0  0  0  0  0  0  0
    1.9495   14.0693    1.0297 H   0  0  0  0  0  0  0  0  0  0  0  0
    3.6278   12.8096   -0.4648 H   0  0  0  0  0  0  0  0  0  0  0  0
    2.8221   11.9833    0.9696 H   0  0  0  0  0  0  0  0  0  0  0  0
    3.0309   10.5531   -1.2326 H   0  0  0  0  0  0  0  0  0  0  0  0
   -0.4560   12.5365   -1.6909 H   0  0  0  0  0  0  0  0  0  0  0  0
   -1.0466   10.4433    0.4913 H   0  0  0  0  0  0  0  0  0  0  0  0
   -2.2025   11.6772   -0.1810 H   0  0  0  0  0  0  0  0  0  0  0  0
   -2.5961    9.4205   -1.1137 H   0  0  0  0  0  0  0  0  0  0  0  0
   -2.1012   10.6259   -2.3663 H   0  0  0  0  0  0  0  0  0  0  0  0
   -0.9421    8.5648   -2.7776 H   0  0  0  0  0  0  0  0  0  0  0  0
    0.2790    7.5740   -1.1570 H   0  0  0  0  0  0  0  0  0  0  0  0
   -0.0377   11.6421   -3.5363 H   0  0  0  0  0  0  0  0  0  0  0  0
    1.3052   10.7122   -4.2837 H   0  0  0  0  0  0  0  0  0  0  0  0
   -0.3609   10.0409   -4.2837 H   0  0  0  0  0  0  0  0  0  0  0  0
    2.1870    8.5711   -1.6499 H   0  0  0  0  0  0  0  0  0  0  0  0
    1.3972    8.0721   -3.1841 H   0  0  0  0  0  0  0  0  0  0  0  0
    2.5925    9.4129   -3.1841 H   0  0  0  0  0  0  0  0  0  0  0  0
    0.2343   13.1775    2.4445 H   0  0  0  0  0  0  0  0  0  0  0  0
   -0.8450   11.8873    1.8141 H   0  0  0  0  0  0  0  0  0  0  0  0
    0.9354   11.6484    1.8141 H   0  0  0  0  0  0  0  0  0  0  0  0
   -1.8246   13.7129   -0.0449 H   0  0  0  0  0  0  0  0  0  0  0  0
   -0.8241   14.6252    1.2205 H   0  0  0  0  0  0  0  0  0  0  0  0
   -0.7423   14.9565   -1.7908 H   0  0  0  0  0  0  0  0  0  0  0  0
   -1.2978   16.1371   -0.5399 H   0  0  0  0  0  0  0  0  0  0  0  0
    0.7796   15.6404    1.5650 H   0  0  0  0  0  0  0  0  0  0  0  0
    2.0085   16.8073    0.9691 H   0  0  0  0  0  0  0  0  0  0  0  0
    0.2692   17.2563    0.9691 H   0  0  0  0  0  0  0  0  0  0  0  0
  1  2  1  0
  2  3  1  0
  3  4  1  0
  4  5  1  0
  5  6  1  0
  6  7  1  0
  7  8  1  0
  7  9  1  0
  2 10  1  0
 10 11  1  0
 11 12  1  0
 12 13  1  0
 13 14  1  6
 13 15  1  0
 15 16  1  0
 16 17  1  0
 17 18  2  0
 18 19  1  0
 19 20  1  0
 20 21  1  0
 21 22  1  0
 22 23  1  0
 22 24  1  0
 24 25  1  0
 24 26  1  0
 19 27  1  0
 27 28  1  1
 27 29  1  0
 29 30  1  0
 30 31  1  0
 31 32  1  1
  7  5  1  0
 31 10  1  0
 31 13  1  0
 27 15  1  0
 24 18  1  0
  1 33  1  0
  1 34  1  0
  1 35  1  0
  2 36  1  6
  3 37  1  0
  3 38  1  0
  4 39  1  0
  4 40  1  0
  5 41  1  6
  8 42  1  0
  8 43  1  0
  8 44  1  0
  9 45  1  0
  9 46  1  0
  9 47  1  0
 10 48  1  6
 11 49  1  0
 11 50  1  0
 12 51  1  0
 12 52  1  0
 14 53  1  0
 14 54  1  0
 14 55  1  0
 15 56  1  1
 16 57  1  0
 16 58  1  0
 17 59  1  0
 19 60  1  6
 20 61  1  0
 20 62  1  0
 21 63  1  0
 21 64  1  0
 22 65  1  6
 23 66  1  0
 25 67  1  0
 25 68  1  0
 25 69  1  0
 26 70  1  0
 26 71  1  0
 26 72  1  0
 28 73  1  0
 28 74  1  0
 28 75  1  0
 29 76  1  0
 29 77  1  0
 30 78  1  0
 30 79  1  0
 32 80  1  0
 32 81  1  0
 32 82  1  0
M  END
>  <meeko>  (13) 
{"is_sidechain": [false], "intermolecular_energy": 2.731, "internal_energy": -0.839}

$$$$
EPH_relaxed_0001_pdb2pqr_Repair_262_r2_0001_out
     RDKit          3D

 82 86  0  0  0  0  0  0  0  0999 V2000
    2.8380   11.2700   -5.2550 C   0  0  0  0  0  0  0  0  0  0  0  0
    1.7800   10.9990   -4.1820 C   0  0  2  0  0  0  0  0  0  0  0  0
    0.6550   10.0780   -4.6960 C   0  0  0  0  0  0  0  0  0  0  0  0
   -0.4200    9.7760   -3.6480 C   0  0  0  0  0  0  0  0  0  0  0  0
    0.1340    8.9930   -2.4960 C   0  0  2  0  0  0  0  0  0  0  0  0
   -0.6980    7.9140   -2.0500 O   0  0  0  0  0  0  0  0  0  0  0  0
   -0.4920    8.9840   -1.1140 C   0  0  0  0  0  0  0  0  0  0  0  0
   -1.7260    9.7740   -0.8100 C   0  0  0  0  0  0  0  0  0  0  0  0
    0.3620    8.6050    0.0560 C   0  0  0  0  0  0  0  0  0  0  0  0
    1.1910   12.3150   -3.6890 C   0  0  1  0  0  0  0  0  0  0  0  0
   -0.3510   12.2550   -3.5240 C   0  0  0  0  0  0  0  0  0  0  0  0
   -0.7050   13.1410   -2.3020 C   0  0  0  0  0  0  0  0  0  0  0  0
    0.5880   13.9380   -2.0100 C   0  0  1  0  0  0  0  0  0  0  0  0
    0.5700   15.1190   -3.0310 C   0  0  0  0  0  0  0  0  0  0  0  0
    0.7710   14.4460   -0.5430 C   0  0  2  0  0  0  0  0  0  0  0  0
   -0.2970   15.4430   -0.0600 C   0  0  0  0  0  0  0  0  0  0  0  0
    0.0190   16.8820   -0.2990 C   0  0  0  0  0  0  0  0  0  0  0  0
    1.2310   17.3740   -0.6170 C   0  0  0  0  0  0  0  0  0  0  0  0
    2.4630   16.4610   -0.6690 C   0  0  1  0  0  0  0  0  0  0  0  0
    3.6410   17.1380    0.0800 C   0  0  0  0  0  0  0  0  0  0  0  0
    3.9340   18.5430   -0.4370 C   0  0  0  0  0  0  0  0  0  0  0  0
    2.7020   19.4360   -0.3140 C   0  0  2  0  0  0  0  0  0  0  0  0
    2.4180   19.6420    1.0730 O   0  0  0  0  0  0  0  0  0  0  0  0
    1.4480   18.8520   -1.0240 C   0  0  0  0  0  0  0  0  0  0  0  0
    1.6440   18.9100   -2.5590 C   0  0  0  0  0  0  0  0  0  0  0  0
    0.2440   19.7790   -0.7040 C   0  0  0  0  0  0  0  0  0  0  0  0
    2.2310   14.9570   -0.2110 C   0  0  1  0  0  0  0  0  0  0  0  0
    2.4040   14.8390    1.3340 C   0  0  0  0  0  0  0  0  0  0  0  0
    3.3440   14.0470   -0.8530 C   0  0  0  0  0  0  0  0  0  0  0  0
    3.0530   13.4780   -2.2550 C   0  0  0  0  0  0  0  0  0  0  0  0
    1.6660   12.8320   -2.3070 C   0  0  2  0  0  0  0  0  0  0  0  0
    1.6610   11.6270   -1.3070 C   0  0  0  0  0  0  0  0  0  0  0  0
    3.7955   11.5152   -4.7722 H   0  0  0  0  0  0  0  0  0  0  0  0
    2.9622   10.3747   -5.8819 H   0  0  0  0  0  0  0  0  0  0  0  0
    2.5165   12.1148   -5.8819 H   0  0  0  0  0  0  0  0  0  0  0  0
    2.2778   10.4797   -3.3498 H   0  0  0  0  0  0  0  0  0  0  0  0
    0.1737   10.5649   -5.5570 H   0  0  0  0  0  0  0  0  0  0  0  0
    1.1218    9.1186   -4.9635 H   0  0  0  0  0  0  0  0  0  0  0  0
   -0.8270   10.7258   -3.2707 H   0  0  0  0  0  0  0  0  0  0  0  0
   -1.2058    9.1730   -4.1264 H   0  0  0  0  0  0  0  0  0  0  0  0
    1.1639    9.1715   -2.8388 H   0  0  0  0  0  0  0  0  0  0  0  0
   -1.8509    9.8540    0.2800 H   0  0  0  0  0  0  0  0  0  0  0  0
   -1.6328   10.7808   -1.2432 H   0  0  0  0  0  0  0  0  0  0  0  0
   -2.6013    9.2680   -1.2432 H   0  0  0  0  0  0  0  0  0  0  0  0
   -0.1696    8.8409    0.9897 H   0  0  0  0  0  0  0  0  0  0  0  0
    0.5772    7.5269    0.0189 H   0  0  0  0  0  0  0  0  0  0  0  0
    1.3058    9.1688    0.0189 H   0  0  0  0  0  0  0  0  0  0  0  0
    1.5458   12.9863   -4.4849 H   0  0  0  0  0  0  0  0  0  0  0  0
   -0.8440   12.6420   -4.4280 H   0  0  0  0  0  0  0  0  0  0  0  0
   -0.6921   11.2201   -3.3735 H   0  0  0  0  0  0  0  0  0  0  0  0
   -1.5346   13.8218   -2.5433 H   0  0  0  0  0  0  0  0  0  0  0  0
   -1.0327   12.5463   -1.4366 H   0  0  0  0  0  0  0  0  0  0  0  0
    0.5554   16.0745   -2.4862 H   0  0  0  0  0  0  0  0  0  0  0  0
    1.4690   15.0710   -3.6631 H   0  0  0  0  0  0  0  0  0  0  0  0
   -0.3271   15.0436   -3.6631 H   0  0  0  0  0  0  0  0  0  0  0  0
    0.6126   13.5300    0.0451 H   0  0  0  0  0  0  0  0  0  0  0  0
   -1.2383   15.2109   -0.5797 H   0  0  0  0  0  0  0  0  0  0  0  0
   -0.3547   15.3216    1.0318 H   0  0  0  0  0  0  0  0  0  0  0  0
   -0.8083   17.6012   -0.2076 H   0  0  0  0  0  0  0  0  0  0  0  0
    2.7140   16.3485   -1.7341 H   0  0  0  0  0  0  0  0  0  0  0  0
    3.3892   17.2012    1.1489 H   0  0  0  0  0  0  0  0  0  0  0  0
    4.5394   16.5263   -0.0893 H   0  0  0  0  0  0  0  0  0  0  0  0
    4.7552   18.9792    0.1507 H   0  0  0  0  0  0  0  0  0  0  0  0
    4.2151   18.4757   -1.4984 H   0  0  0  0  0  0  0  0  0  0  0  0
    2.9324   20.3866   -0.8172 H   0  0  0  0  0  0  0  0  0  0  0  0
    1.5010   19.9560    1.1420 H   0  0  0  0  0  0  0  0  0  0  0  0
    2.6762   19.2154   -2.7856 H   0  0  0  0  0  0  0  0  0  0  0  0
    1.4524   17.9167   -2.9909 H   0  0  0  0  0  0  0  0  0  0  0  0
    0.9427   19.6391   -2.9909 H   0  0  0  0  0  0  0  0  0  0  0  0
    0.1290   19.8675    0.3864 H   0  0  0  0  0  0  0  0  0  0  0  0
    0.4230   20.7747   -1.1359 H   0  0  0  0  0  0  0  0  0  0  0  0
   -0.6729   19.3514   -1.1359 H   0  0  0  0  0  0  0  0  0  0  0  0
    1.5957   15.3903    1.8366 H   0  0  0  0  0  0  0  0  0  0  0  0
    2.3631   13.7797    1.6277 H   0  0  0  0  0  0  0  0  0  0  0  0
    3.3753   15.2637    1.6277 H   0  0  0  0  0  0  0  0  0  0  0  0
    4.2646   14.6453   -0.9212 H   0  0  0  0  0  0  0  0  0  0  0  0
    3.4127   13.1686   -0.1945 H   0  0  0  0  0  0  0  0  0  0  0  0
    3.0976   14.2943   -2.9910 H   0  0  0  0  0  0  0  0  0  0  0  0
    3.8064   12.7103   -2.4853 H   0  0  0  0  0  0  0  0  0  0  0  0
    1.6626   12.0071   -0.2748 H   0  0  0  0  0  0  0  0  0  0  0  0
    0.7603   11.0174   -1.4719 H   0  0  0  0  0  0  0  0  0  0  0  0
    2.5566   11.0100   -1.4719 H   0  0  0  0  0  0  0  0  0  0  0  0
  1  2  1  0
  2  3  1  0
  3  4  1  0
  4  5  1  0
  5  6  1  0
  6  7  1  0
  7  8  1  0
  7  9  1  0
  2 10  1  0
 10 11  1  0
 11 12  1  0
 12 13  1  0
 13 14  1  6
 13 15  1  0
 15 16  1  0
 16 17  1  0
 17 18  2  0
 18 19  1  0
 19 20  1  0
 20 21  1  0
 21 22  1  0
 22 23  1  0
 22 24  1  0
 24 25  1  0
 24 26  1  0
 19 27  1  0
 27 28  1  1
 27 29  1  0
 29 30  1  0
 30 31  1  0
 31 32  1  1
  7  5  1  0
 31 10  1  0
 31 13  1  0
 27 15  1  0
 24 18  1  0
  1 33  1  0
  1 34  1  0
  1 35  1  0
  2 36  1  1
  3 37  1  0
  3 38  1  0
  4 39  1  0
  4 40  1  0
  5 41  1  1
  8 42  1  0
  8 43  1  0
  8 44  1  0
  9 45  1  0
  9 46  1  0
  9 47  1  0
 10 48  1  6
 11 49  1  0
 11 50  1  0
 12 51  1  0
 12 52  1  0
 14 53  1  0
 14 54  1  0
 14 55  1  0
 15 56  1  1
 16 57  1  0
 16 58  1  0
 17 59  1  0
 19 60  1  6
 20 61  1  0
 20 62  1  0
 21 63  1  0
 21 64  1  0
 22 65  1  6
 23 66  1  0
 25 67  1  0
 25 68  1  0
 25 69  1  0
 26 70  1  0
 26 71  1  0
 26 72  1  0
 28 73  1  0
 28 74  1  0
 28 75  1  0
 29 76  1  0
 29 77  1  0
 30 78  1  0
 30 79  1  0
 32 80  1  0
 32 81  1  0
 32 82  1  0
M  END
>  <meeko>  (14) 
{"is_sidechain": [false], "intermolecular_energy": 2.731, "internal_energy": -0.839}

$$$$
EPH_relaxed_0001_pdb2pqr_Repair_262_r2_0001_out
     RDKit          3D

 82 86  0  0  0  0  0  0  0  0999 V2000
    1.1110   14.8020   -2.6560 C   0  0  0  0  0  0  0  0  0  0  0  0
    1.2990   14.1310   -4.0190 C   0  0  2  0  0  0  0  0  0  0  0  0
    0.5620   14.8850   -5.1440 C   0  0  0  0  0  0  0  0  0  0  0  0
    1.1260   14.6110   -6.5410 C   0  0  0  0  0  0  0  0  0  0  0  0
    0.8720   15.7540   -7.4760 C   0  0  2  0  0  0  0  0  0  0  0  0
    0.3790   15.3740   -8.7670 O   0  0  0  0  0  0  0  0  0  0  0  0
    1.6740   15.9950   -8.7410 C   0  0  0  0  0  0  0  0  0  0  0  0
    2.7930   15.0840   -9.1400 C   0  0  0  0  0  0  0  0  0  0  0  0
    1.6940   17.3730   -9.3250 C   0  0  0  0  0  0  0  0  0  0  0  0
    0.8160   12.6860   -3.9580 C   0  0  1  0  0  0  0  0  0  0  0  0
    1.9260   11.6690   -4.3340 C   0  0  0  0  0  0  0  0  0  0  0  0
    1.6990   10.4130   -3.4550 C   0  0  0  0  0  0  0  0  0  0  0  0
    0.2900   10.6110   -2.8490 C   0  0  1  0  0  0  0  0  0  0  0  0
   -0.6960   10.1570   -3.9710 C   0  0  0  0  0  0  0  0  0  0  0  0
    0.0080    9.8720   -1.5000 C   0  0  2  0  0  0  0  0  0  0  0  0
    0.0790    8.3370   -1.5700 C   0  0  0  0  0  0  0  0  0  0  0  0
   -1.2090    7.6520   -1.8890 C   0  0  0  0  0  0  0  0  0  0  0  0
   -2.4290    8.2170   -1.8320 C   0  0  0  0  0  0  0  0  0  0  0  0
   -2.6110    9.6510   -1.3190 C   0  0  1  0  0  0  0  0  0  0  0  0
   -3.7900    9.6950   -0.3120 C   0  0  0  0  0  0  0  0  0  0  0  0
   -5.0770    9.1160   -0.8920 C   0  0  0  0  0  0  0  0  0  0  0  0
   -4.8720    7.6700   -1.3380 C   0  0  2  0  0  0  0  0  0  0  0  0
   -4.6310    6.8610   -0.1820 O   0  0  0  0  0  0  0  0  0  0  0  0
   -3.7020    7.5000   -2.3470 C   0  0  0  0  0  0  0  0  0  0  0  0
   -4.0950    8.1250   -3.7090 C   0  0  0  0  0  0  0  0  0  0  0  0
   -3.5120    5.9810   -2.6060 C   0  0  0  0  0  0  0  0  0  0  0  0
   -1.3030   10.3570   -0.7570 C   0  0  1  0  0  0  0  0  0  0  0  0
   -1.1150   10.0080    0.7510 C   0  0  0  0  0  0  0  0  0  0  0  0
   -1.4890   11.9190   -0.8320 C   0  0  0  0  0  0  0  0  0  0  0  0
   -1.0810   12.6050   -2.1490 C   0  0  0  0  0  0  0  0  0  0  0  0
    0.3180   12.1610   -2.5880 C   0  0  2  0  0  0  0  0  0  0  0  0
    1.3340   12.6230   -1.4890 C   0  0  0  0  0  0  0  0  0  0  0  0
    1.3151   14.0736   -1.8574 H   0  0  0  0  0  0  0  0  0  0  0  0
    1.8062   15.6496   -2.5656 H   0  0  0  0  0  0  0  0  0  0  0  0
    0.0766   15.1650   -2.5656 H   0  0  0  0  0  0  0  0  0  0  0  0
    2.3733   14.1548   -4.2540 H   0  0  0  0  0  0  0  0  0  0  0  0
   -0.4952   14.5815   -5.1307 H   0  0  0  0  0  0  0  0  0  0  0  0
    0.6927   15.9598   -4.9498 H   0  0  0  0  0  0  0  0  0  0  0  0
    2.2112   14.4498   -6.4618 H   0  0  0  0  0  0  0  0  0  0  0  0
    0.6231   13.7199   -6.9447 H   0  0  0  0  0  0  0  0  0  0  0  0
    0.6041   16.4115   -6.6358 H   0  0  0  0  0  0  0  0  0  0  0  0
    3.2814   14.6864   -8.2381 H   0  0  0  0  0  0  0  0  0  0  0  0
    2.3928   14.2516   -9.7375 H   0  0  0  0  0  0  0  0  0  0  0  0
    3.5269   15.6446   -9.7375 H   0  0  0  0  0  0  0  0  0  0  0  0
    1.7048   18.1152   -8.5132 H   0  0  0  0  0  0  0  0  0  0  0  0
    2.5940   17.4952   -9.9455 H   0  0  0  0  0  0  0  0  0  0  0  0
    0.7979   17.5213   -9.9455 H   0  0  0  0  0  0  0  0  0  0  0  0
   -0.0223   12.7410   -4.6680 H   0  0  0  0  0  0  0  0  0  0  0  0
    1.8520   11.4042   -5.3991 H   0  0  0  0  0  0  0  0  0  0  0  0
    2.9257   12.0948   -4.1632 H   0  0  0  0  0  0  0  0  0  0  0  0
    1.7339    9.4994   -4.0666 H   0  0  0  0  0  0  0  0  0  0  0  0
    2.4734   10.2989   -2.6822 H   0  0  0  0  0  0  0  0  0  0  0  0
   -1.6046    9.7386   -3.5134 H   0  0  0  0  0  0  0  0  0  0  0  0
   -0.9647   11.0221   -4.5951 H   0  0  0  0  0  0  0  0  0  0  0  0
   -0.2134    9.3904   -4.5951 H   0  0  0  0  0  0  0  0  0  0  0  0
    0.8607   10.1823   -0.8782 H   0  0  0  0  0  0  0  0  0  0  0  0
    0.8095    8.0657   -2.3464 H   0  0  0  0  0  0  0  0  0  0  0  0
    0.3612    7.9995   -0.5618 H   0  0  0  0  0  0  0  0  0  0  0  0
   -1.1561    6.5971   -2.1963 H   0  0  0  0  0  0  0  0  0  0  0  0
   -2.8510   10.2616   -2.2019 H   0  0  0  0  0  0  0  0  0  0  0  0
   -3.5132    9.1147    0.5805 H   0  0  0  0  0  0  0  0  0  0  0  0
   -3.9798   10.7502   -0.0661 H   0  0  0  0  0  0  0  0  0  0  0  0
   -5.8642    9.1479   -0.1243 H   0  0  0  0  0  0  0  0  0  0  0  0
   -5.3688    9.7154   -1.7669 H   0  0  0  0  0  0  0  0  0  0  0  0
   -5.7863    7.3535   -1.8614 H   0  0  0  0  0  0  0  0  0  0  0  0
   -3.6710    6.8430   -0.0300 H   0  0  0  0  0  0  0  0  0  0  0  0
   -4.6733    9.0448   -3.5371 H   0  0  0  0  0  0  0  0  0  0  0  0
   -3.1850    8.3651   -4.2785 H   0  0  0  0  0  0  0  0  0  0  0  0
   -4.7057    7.4089   -4.2785 H   0  0  0  0  0  0  0  0  0  0  0  0
   -3.4457    5.4506   -1.6446 H   0  0  0  0  0  0  0  0  0  0  0  0
   -4.3691    5.5966   -3.1784 H   0  0  0  0  0  0  0  0  0  0  0  0
   -2.5867    5.8196   -3.1784 H   0  0  0  0  0  0  0  0  0  0  0  0
   -1.5465   10.8090    1.3693 H   0  0  0  0  0  0  0  0  0  0  0  0
   -1.6237    9.0585    0.9738 H   0  0  0  0  0  0  0  0  0  0  0  0
   -0.0422    9.9104    0.9738 H   0  0  0  0  0  0  0  0  0  0  0  0
   -2.5536   12.1359   -0.6598 H   0  0  0  0  0  0  0  0  0  0  0  0
   -0.8063   12.3267   -0.0719 H   0  0  0  0  0  0  0  0  0  0  0  0
   -1.8055   12.3389   -2.9328 H   0  0  0  0  0  0  0  0  0  0  0  0
   -1.0695   13.6932   -1.9887 H   0  0  0  0  0  0  0  0  0  0  0  0
    0.9094   12.4299   -0.4928 H   0  0  0  0  0  0  0  0  0  0  0  0
    2.2748   12.0642   -1.6012 H   0  0  0  0  0  0  0  0  0  0  0  0
    1.5312   13.6993   -1.6012 H   0  0  0  0  0  0  0  0  0  0  0  0
  1  2  1  0
  2  3  1  0
  3  4  1  0
  4  5  1  0
  5  6  1  0
  6  7  1  0
  7  8  1  0
  7  9  1  0
  2 10  1  0
 10 11  1  0
 11 12  1  0
 12 13  1  0
 13 14  1  6
 13 15  1  0
 15 16  1  0
 16 17  1  0
 17 18  2  0
 18 19  1  0
 19 20  1  0
 20 21  1  0
 21 22  1  0
 22 23  1  0
 22 24  1  0
 24 25  1  0
 24 26  1  0
 19 27  1  0
 27 28  1  1
 27 29  1  0
 29 30  1  0
 30 31  1  0
 31 32  1  1
  7  5  1  0
 31 10  1  0
 31 13  1  0
 27 15  1  0
 24 18  1  0
  1 33  1  0
  1 34  1  0
  1 35  1  0
  2 36  1  6
  3 37  1  0
  3 38  1  0
  4 39  1  0
  4 40  1  0
  5 41  1  1
  8 42  1  0
  8 43  1  0
  8 44  1  0
  9 45  1  0
  9 46  1  0
  9 47  1  0
 10 48  1  6
 11 49  1  0
 11 50  1  0
 12 51  1  0
 12 52  1  0
 14 53  1  0
 14 54  1  0
 14 55  1  0
 15 56  1  1
 16 57  1  0
 16 58  1  0
 17 59  1  0
 19 60  1  6
 20 61  1  0
 20 62  1  0
 21 63  1  0
 21 64  1  0
 22 65  1  6
 23 66  1  0
 25 67  1  0
 25 68  1  0
 25 69  1  0
 26 70  1  0
 26 71  1  0
 26 72  1  0
 28 73  1  0
 28 74  1  0
 28 75  1  0
 29 76  1  0
 29 77  1  0
 30 78  1  0
 30 79  1  0
 32 80  1  0
 32 81  1  0
 32 82  1  0
M  END
>  <meeko>  (15) 
{"is_sidechain": [false], "intermolecular_energy": 2.731, "internal_energy": -0.839}

$$$$
EPH_relaxed_0001_pdb2pqr_Repair_262_r2_0001_out
     RDKit          3D

 82 86  0  0  0  0  0  0  0  0999 V2000
    1.9950   18.5350   -1.8880 C   0  0  0  0  0  0  0  0  0  0  0  0
    2.3810   17.4210   -2.8650 C   0  0  2  0  0  0  0  0  0  0  0  0
    1.3660   17.2790   -4.0160 C   0  0  0  0  0  0  0  0  0  0  0  0
    1.7100   16.1640   -5.0070 C   0  0  0  0  0  0  0  0  0  0  0  0
    0.6240   15.9700   -6.0220 C   0  0  2  0  0  0  0  0  0  0  0  0
    0.5930   14.6690   -6.6250 O   0  0  0  0  0  0  0  0  0  0  0  0
    0.8900   15.7680   -7.5020 C   0  0  0  0  0  0  0  0  0  0  0  0
    2.2830   15.7500   -8.0500 C   0  0  0  0  0  0  0  0  0  0  0  0
   -0.2060   16.0750   -8.4740 C   0  0  0  0  0  0  0  0  0  0  0  0
    2.5110   16.0980   -2.1190 C   0  0  1  0  0  0  0  0  0  0  0  0
    3.2920   16.2380   -0.7850 C   0  0  0  0  0  0  0  0  0  0  0  0
    2.6480   15.2450    0.2160 C   0  0  0  0  0  0  0  0  0  0  0  0
    1.7500   14.3380   -0.6570 C   0  0  1  0  0  0  0  0  0  0  0  0
    2.7220   13.2840   -1.2730 C   0  0  0  0  0  0  0  0  0  0  0  0
    0.5440   13.6570    0.0680 C   0  0  2  0  0  0  0  0  0  0  0  0
    0.9260   12.6830    1.1960 C   0  0  0  0  0  0  0  0  0  0  0  0
    1.1130   11.2630    0.7770 C   0  0  0  0  0  0  0  0  0  0  0  0
    0.7060   10.7320   -0.3920 C   0  0  0  0  0  0  0  0  0  0  0  0
   -0.1040   11.5640   -1.3940 C   0  0  1  0  0  0  0  0  0  0  0  0
   -1.3130   10.7320   -1.8990 C   0  0  0  0  0  0  0  0  0  0  0  0
   -0.8960    9.3780   -2.4660 C   0  0  0  0  0  0  0  0  0  0  0  0
   -0.1430    8.5580   -1.4210 C   0  0  2  0  0  0  0  0  0  0  0  0
   -1.0470    8.2150   -0.3660 O   0  0  0  0  0  0  0  0  0  0  0  0
    1.0900    9.2980   -0.8330 C   0  0  0  0  0  0  0  0  0  0  0  0
    2.1980    9.4020   -1.9110 C   0  0  0  0  0  0  0  0  0  0  0  0
    1.6750    8.4210    0.3070 C   0  0  0  0  0  0  0  0  0  0  0  0
   -0.5240   13.0180   -0.9100 C   0  0  1  0  0  0  0  0  0  0  0  0
   -1.8670   12.9490   -0.1200 C   0  0  0  0  0  0  0  0  0  0  0  0
   -0.7960   13.9210   -2.1710 C   0  0  0  0  0  0  0  0  0  0  0  0
    0.4150   14.6620   -2.7690 C   0  0  0  0  0  0  0  0  0  0  0  0
    1.2000   15.3980   -1.6790 C   0  0  2  0  0  0  0  0  0  0  0  0
    0.2550   16.4810   -1.0560 C   0  0  0  0  0  0  0  0  0  0  0  0
    2.1192   18.1765   -0.8555 H   0  0  0  0  0  0  0  0  0  0  0  0
    2.6429   19.4085   -2.0533 H   0  0  0  0  0  0  0  0  0  0  0  0
    0.9456   18.8203   -2.0533 H   0  0  0  0  0  0  0  0  0  0  0  0
    3.3488   17.6936   -3.3113 H   0  0  0  0  0  0  0  0  0  0  0  0
    0.3776   17.0657   -3.5829 H   0  0  0  0  0  0  0  0  0  0  0  0
    1.3833   18.2245   -4.5778 H   0  0  0  0  0  0  0  0  0  0  0  0
    2.6426   16.4256   -5.5283 H   0  0  0  0  0  0  0  0  0  0  0  0
    1.8235   15.2266   -4.4427 H   0  0  0  0  0  0  0  0  0  0  0  0
   -0.0398   16.6585   -5.4786 H   0  0  0  0  0  0  0  0  0  0  0  0
    3.0038   15.7407   -7.2191 H   0  0  0  0  0  0  0  0  0  0  0  0
    2.4228   14.8500   -8.6668 H   0  0  0  0  0  0  0  0  0  0  0  0
    2.4460   16.6461   -8.6668 H   0  0  0  0  0  0  0  0  0  0  0  0
   -1.1230   16.3319   -7.9235 H   0  0  0  0  0  0  0  0  0  0  0  0
    0.0920   16.9242   -9.1064 H   0  0  0  0  0  0  0  0  0  0  0  0
   -0.3925   15.1945   -9.1064 H   0  0  0  0  0  0  0  0  0  0  0  0
    3.0165   15.4998   -2.8914 H   0  0  0  0  0  0  0  0  0  0  0  0
    4.3520   15.9873   -0.9384 H   0  0  0  0  0  0  0  0  0  0  0  0
    3.2436   17.2692   -0.4051 H   0  0  0  0  0  0  0  0  0  0  0  0
    3.4211   14.6511    0.7255 H   0  0  0  0  0  0  0  0  0  0  0  0
    2.0798   15.7585    1.0056 H   0  0  0  0  0  0  0  0  0  0  0  0
    3.2279   12.7354   -0.4649 H   0  0  0  0  0  0  0  0  0  0  0  0
    2.1514   12.5779   -1.8942 H   0  0  0  0  0  0  0  0  0  0  0  0
    3.4719   13.7957   -1.8942 H   0  0  0  0  0  0  0  0  0  0  0  0
    0.0548   14.5094    0.5621 H   0  0  0  0  0  0  0  0  0  0  0  0
    1.8688   13.0326    1.6420 H   0  0  0  0  0  0  0  0  0  0  0  0
    0.0791   12.6838    1.8980 H   0  0  0  0  0  0  0  0  0  0  0  0
    1.6267   10.5933    1.4825 H   0  0  0  0  0  0  0  0  0  0  0  0
    0.5771   11.7801   -2.2303 H   0  0  0  0  0  0  0  0  0  0  0  0
   -2.0020   10.5649   -1.0579 H   0  0  0  0  0  0  0  0  0  0  0  0
   -1.7935   11.2996   -2.7095 H   0  0  0  0  0  0  0  0  0  0  0  0
   -1.7949    8.8259   -2.7777 H   0  0  0  0  0  0  0  0  0  0  0  0
   -0.2312    9.5469   -3.3259 H   0  0  0  0  0  0  0  0  0  0  0  0
    0.2423    7.6581   -1.9227 H   0  0  0  0  0  0  0  0  0  0  0  0
   -1.6310    7.5110   -0.6950 H   0  0  0  0  0  0  0  0  0  0  0  0
    3.1786    9.4940   -1.4212 H   0  0  0  0  0  0  0  0  0  0  0  0
    2.1849    8.4987   -2.5386 H   0  0  0  0  0  0  0  0  0  0  0  0
    2.0171   10.2871   -2.5386 H   0  0  0  0  0  0  0  0  0  0  0  0
    1.3906    8.8473    1.2803 H   0  0  0  0  0  0  0  0  0  0  0  0
    1.2772    7.3988    0.2241 H   0  0  0  0  0  0  0  0  0  0  0  0
    2.7716    8.3956    0.2241 H   0  0  0  0  0  0  0  0  0  0  0  0
   -1.6581   12.9597    0.9599 H   0  0  0  0  0  0  0  0  0  0  0  0
   -2.4911   13.8163   -0.3814 H   0  0  0  0  0  0  0  0  0  0  0  0
   -2.3990   12.0223   -0.3814 H   0  0  0  0  0  0  0  0  0  0  0  0
   -1.2135   13.2761   -2.9583 H   0  0  0  0  0  0  0  0  0  0  0  0
   -1.4722   14.7132   -1.8172 H   0  0  0  0  0  0  0  0  0  0  0  0
    1.0769   13.9329   -3.2591 H   0  0  0  0  0  0  0  0  0  0  0  0
    0.0495   15.4007   -3.4976 H   0  0  0  0  0  0  0  0  0  0  0  0
    0.3050   16.4237    0.0414 H   0  0  0  0  0  0  0  0  0  0  0  0
    0.5750   17.4804   -1.3860 H   0  0  0  0  0  0  0  0  0  0  0  0
   -0.7785   16.2994   -1.3860 H   0  0  0  0  0  0  0  0  0  0  0  0
  1  2  1  0
  2  3  1  0
  3  4  1  0
  4  5  1  0
  5  6  1  0
  6  7  1  0
  7  8  1  0
  7  9  1  0
  2 10  1  0
 10 11  1  0
 11 12  1  0
 12 13  1  0
 13 14  1  6
 13 15  1  0
 15 16  1  0
 16 17  1  0
 17 18  2  0
 18 19  1  0
 19 20  1  0
 20 21  1  0
 21 22  1  0
 22 23  1  0
 22 24  1  0
 24 25  1  0
 24 26  1  0
 19 27  1  0
 27 28  1  1
 27 29  1  0
 29 30  1  0
 30 31  1  0
 31 32  1  1
  7  5  1  0
 31 10  1  0
 31 13  1  0
 27 15  1  0
 24 18  1  0
  1 33  1  0
  1 34  1  0
  1 35  1  0
  2 36  1  6
  3 37  1  0
  3 38  1  0
  4 39  1  0
  4 40  1  0
  5 41  1  6
  8 42  1  0
  8 43  1  0
  8 44  1  0
  9 45  1  0
  9 46  1  0
  9 47  1  0
 10 48  1  6
 11 49  1  0
 11 50  1  0
 12 51  1  0
 12 52  1  0
 14 53  1  0
 14 54  1  0
 14 55  1  0
 15 56  1  1
 16 57  1  0
 16 58  1  0
 17 59  1  0
 19 60  1  6
 20 61  1  0
 20 62  1  0
 21 63  1  0
 21 64  1  0
 22 65  1  6
 23 66  1  0
 25 67  1  0
 25 68  1  0
 25 69  1  0
 26 70  1  0
 26 71  1  0
 26 72  1  0
 28 73  1  0
 28 74  1  0
 28 75  1  0
 29 76  1  0
 29 77  1  0
 30 78  1  0
 30 79  1  0
 32 80  1  0
 32 81  1  0
 32 82  1  0
M  END
>  <meeko>  (16) 
{"is_sidechain": [false], "intermolecular_energy": 2.731, "internal_energy": -0.839}

$$$$
EPH_relaxed_0001_pdb2pqr_Repair_262_r2_0001_out
     RDKit          3D

 82 86  0  0  0  0  0  0  0  0999 V2000
   -2.4500    7.8200   -0.0080 C   0  0  0  0  0  0  0  0  0  0  0  0
   -3.1030    9.2050   -0.0530 C   0  0  2  0  0  0  0  0  0  0  0  0
   -4.5840    9.1350   -0.4770 C   0  0  0  0  0  0  0  0  0  0  0  0
   -5.1340    7.7080   -0.5600 C   0  0  0  0  0  0  0  0  0  0  0  0
   -5.9000    7.4830   -1.8290 C   0  0  2  0  0  0  0  0  0  0  0  0
   -6.8680    8.4960   -2.1320 O   0  0  0  0  0  0  0  0  0  0  0  0
   -7.3860    7.1820   -1.8660 C   0  0  0  0  0  0  0  0  0  0  0  0
   -8.1960    7.0900   -0.6100 C   0  0  0  0  0  0  0  0  0  0  0  0
   -7.9480    6.5000   -3.0740 C   0  0  0  0  0  0  0  0  0  0  0  0
   -2.3320   10.1130   -1.0030 C   0  0  1  0  0  0  0  0  0  0  0  0
   -2.9750   11.5190   -1.1400 C   0  0  0  0  0  0  0  0  0  0  0  0
   -1.8100   12.5280   -1.3120 C   0  0  0  0  0  0  0  0  0  0  0  0
   -0.5710   11.6490   -1.6000 C   0  0  1  0  0  0  0  0  0  0  0  0
   -0.6660   11.3070   -3.1200 C   0  0  0  0  0  0  0  0  0  0  0  0
    0.8170   12.2690   -1.2340 C   0  0  2  0  0  0  0  0  0  0  0  0
    1.1850   13.5470   -2.0070 C   0  0  0  0  0  0  0  0  0  0  0  0
    1.9330   13.3290   -3.2800 C   0  0  0  0  0  0  0  0  0  0  0  0
    2.5430   12.1860   -3.6430 C   0  0  0  0  0  0  0  0  0  0  0  0
    2.6000   10.9860   -2.6880 C   0  0  1  0  0  0  0  0  0  0  0  0
    4.0420   10.4160   -2.6590 C   0  0  0  0  0  0  0  0  0  0  0  0
    4.5670   10.0780   -4.0510 C   0  0  0  0  0  0  0  0  0  0  0  0
    4.5490   11.3100   -4.9530 C   0  0  2  0  0  0  0  0  0  0  0  0
    5.5000   12.2580   -4.4580 O   0  0  0  0  0  0  0  0  0  0  0  0
    3.1490   11.9770   -5.0530 C   0  0  0  0  0  0  0  0  0  0  0  0
    2.1940   11.0640   -5.8610 C   0  0  0  0  0  0  0  0  0  0  0  0
    3.3000   13.2840   -5.8760 C   0  0  0  0  0  0  0  0  0  0  0  0
    2.0110   11.2300   -1.2320 C   0  0  1  0  0  0  0  0  0  0  0  0
    3.1140   11.8220   -0.3040 C   0  0  0  0  0  0  0  0  0  0  0  0
    1.5990    9.8460   -0.6060 C   0  0  0  0  0  0  0  0  0  0  0  0
    0.1730    9.3440   -0.9070 C   0  0  0  0  0  0  0  0  0  0  0  0
   -0.8620   10.4400   -0.6380 C   0  0  2  0  0  0  0  0  0  0  0  0
   -0.8050   10.7880    0.8880 C   0  0  0  0  0  0  0  0  0  0  0  0
   -2.3067    7.5161    1.0394 H   0  0  0  0  0  0  0  0  0  0  0  0
   -3.0996    7.0917   -0.5156 H   0  0  0  0  0  0  0  0  0  0  0  0
   -1.4748    7.8577   -0.5156 H   0  0  0  0  0  0  0  0  0  0  0  0
   -3.0701    9.6193    0.9655 H   0  0  0  0  0  0  0  0  0  0  0  0
   -5.1821    9.6955    0.2565 H   0  0  0  0  0  0  0  0  0  0  0  0
   -4.6496    9.5640   -1.4878 H   0  0  0  0  0  0  0  0  0  0  0  0
   -4.2939    6.9991   -0.5200 H   0  0  0  0  0  0  0  0  0  0  0  0
   -5.8193    7.5544    0.2866 H   0  0  0  0  0  0  0  0  0  0  0  0
   -5.0347    6.9851   -2.2909 H   0  0  0  0  0  0  0  0  0  0  0  0
   -7.5300    7.1656    0.2622 H   0  0  0  0  0  0  0  0  0  0  0  0
   -8.9279    7.9108   -0.5847 H   0  0  0  0  0  0  0  0  0  0  0  0
   -8.7252    6.1260   -0.5847 H   0  0  0  0  0  0  0  0  0  0  0  0
   -8.6180    5.6870   -2.7576 H   0  0  0  0  0  0  0  0  0  0  0  0
   -8.5127    7.2271   -3.6761 H   0  0  0  0  0  0  0  0  0  0  0  0
   -7.1264    6.0847   -3.6761 H   0  0  0  0  0  0  0  0  0  0  0  0
   -2.3655    9.4973   -1.9140 H   0  0  0  0  0  0  0  0  0  0  0  0
   -3.6356   11.5495   -2.0190 H   0  0  0  0  0  0  0  0  0  0  0  0
   -3.5826   11.7636   -0.2562 H   0  0  0  0  0  0  0  0  0  0  0  0
   -2.0071   13.2087   -2.1533 H   0  0  0  0  0  0  0  0  0  0  0  0
   -1.6736   13.1625   -0.4239 H   0  0  0  0  0  0  0  0  0  0  0  0
   -0.9586   10.2536   -3.2412 H   0  0  0  0  0  0  0  0  0  0  0  0
   -1.4185   11.9536   -3.5950 H   0  0  0  0  0  0  0  0  0  0  0  0
    0.3122   11.4728   -3.5950 H   0  0  0  0  0  0  0  0  0  0  0  0
    0.6667   12.5841   -0.1909 H   0  0  0  0  0  0  0  0  0  0  0  0
    0.2528   14.0791   -2.2474 H   0  0  0  0  0  0  0  0  0  0  0  0
    1.8603   14.1157   -1.3508 H   0  0  0  0  0  0  0  0  0  0  0  0
    1.9905   14.1747   -3.9811 H   0  0  0  0  0  0  0  0  0  0  0  0
    1.9100   10.2355   -3.1010 H   0  0  0  0  0  0  0  0  0  0  0  0
    4.7075   11.1641   -2.2035 H   0  0  0  0  0  0  0  0  0  0  0  0
    4.0202    9.4837   -2.0755 H   0  0  0  0  0  0  0  0  0  0  0  0
    5.5995    9.7082   -3.9667 H   0  0  0  0  0  0  0  0  0  0  0  0
    3.9186    9.3079   -4.4942 H   0  0  0  0  0  0  0  0  0  0  0  0
    4.8105   10.9783   -5.9687 H   0  0  0  0  0  0  0  0  0  0  0  0
    6.2890   11.7640   -4.1790 H   0  0  0  0  0  0  0  0  0  0  0  0
    1.5768   10.4739   -5.1675 H   0  0  0  0  0  0  0  0  0  0  0  0
    1.5428   11.6840   -6.4947 H   0  0  0  0  0  0  0  0  0  0  0  0
    2.7841   10.3856   -6.4947 H   0  0  0  0  0  0  0  0  0  0  0  0
    3.3988   14.1392   -5.1912 H   0  0  0  0  0  0  0  0  0  0  0  0
    4.1963   13.2166   -6.5101 H   0  0  0  0  0  0  0  0  0  0  0  0
    2.4119   13.4227   -6.5101 H   0  0  0  0  0  0  0  0  0  0  0  0
    2.8293   11.6692    0.7475 H   0  0  0  0  0  0  0  0  0  0  0  0
    4.0704   11.3160   -0.5022 H   0  0  0  0  0  0  0  0  0  0  0  0
    3.2209   12.8987   -0.5022 H   0  0  0  0  0  0  0  0  0  0  0  0
    2.3041    9.0888   -0.9794 H   0  0  0  0  0  0  0  0  0  0  0  0
    1.6251   10.0032    0.4824 H   0  0  0  0  0  0  0  0  0  0  0  0
    0.1128    9.0436   -1.9635 H   0  0  0  0  0  0  0  0  0  0  0  0
   -0.0435    8.4883   -0.2505 H   0  0  0  0  0  0  0  0  0  0  0  0
   -0.9550    9.8723    1.4788 H   0  0  0  0  0  0  0  0  0  0  0  0
    0.1763   11.2229    1.1285 H   0  0  0  0  0  0  0  0  0  0  0  0
   -1.5963   11.5132    1.1285 H   0  0  0  0  0  0  0  0  0  0  0  0
  1  2  1  0
  2  3  1  0
  3  4  1  0
  4  5  1  0
  5  6  1  0
  6  7  1  0
  7  8  1  0
  7  9  1  0
  2 10  1  0
 10 11  1  0
 11 12  1  0
 12 13  1  0
 13 14  1  6
 13 15  1  0
 15 16  1  0
 16 17  1  0
 17 18  2  0
 18 19  1  0
 19 20  1  0
 20 21  1  0
 21 22  1  0
 22 23  1  0
 22 24  1  0
 24 25  1  0
 24 26  1  0
 19 27  1  0
 27 28  1  1
 27 29  1  0
 29 30  1  0
 30 31  1  0
 31 32  1  1
  7  5  1  0
 31 10  1  0
 31 13  1  0
 27 15  1  0
 24 18  1  0
  1 33  1  0
  1 34  1  0
  1 35  1  0
  2 36  1  1
  3 37  1  0
  3 38  1  0
  4 39  1  0
  4 40  1  0
  5 41  1  6
  8 42  1  0
  8 43  1  0
  8 44  1  0
  9 45  1  0
  9 46  1  0
  9 47  1  0
 10 48  1  6
 11 49  1  0
 11 50  1  0
 12 51  1  0
 12 52  1  0
 14 53  1  0
 14 54  1  0
 14 55  1  0
 15 56  1  1
 16 57  1  0
 16 58  1  0
 17 59  1  0
 19 60  1  6
 20 61  1  0
 20 62  1  0
 21 63  1  0
 21 64  1  0
 22 65  1  6
 23 66  1  0
 25 67  1  0
 25 68  1  0
 25 69  1  0
 26 70  1  0
 26 71  1  0
 26 72  1  0
 28 73  1  0
 28 74  1  0
 28 75  1  0
 29 76  1  0
 29 77  1  0
 30 78  1  0
 30 79  1  0
 32 80  1  0
 32 81  1  0
 32 82  1  0
M  END
>  <meeko>  (17) 
{"is_sidechain": [false], "intermolecular_energy": 2.731, "internal_energy": -0.839}

$$$$
EPH_relaxed_0001_pdb2pqr_Repair_262_r2_0001_out
     RDKit          3D

 82 86  0  0  0  0  0  0  0  0999 V2000
   -2.0790    8.0140   -2.1240 C   0  0  0  0  0  0  0  0  0  0  0  0
   -1.9650    8.7530   -0.7880 C   0  0  2  0  0  0  0  0  0  0  0  0
   -3.2950    8.7510   -0.0080 C   0  0  0  0  0  0  0  0  0  0  0  0
   -4.5340    8.8160   -0.9040 C   0  0  0  0  0  0  0  0  0  0  0  0
   -5.2160    7.4850   -1.0060 C   0  0  2  0  0  0  0  0  0  0  0  0
   -5.3490    6.9810   -2.3410 O   0  0  0  0  0  0  0  0  0  0  0  0
   -6.5730    7.2870   -1.6540 C   0  0  0  0  0  0  0  0  0  0  0  0
   -7.3310    8.4360   -2.2430 C   0  0  0  0  0  0  0  0  0  0  0  0
   -7.3750    6.0790   -1.2820 C   0  0  0  0  0  0  0  0  0  0  0  0
   -1.5020   10.1850   -1.0240 C   0  0  1  0  0  0  0  0  0  0  0  0
   -1.1320   10.9190    0.2930 C   0  0  0  0  0  0  0  0  0  0  0  0
    0.0530   11.8620   -0.0380 C   0  0  0  0  0  0  0  0  0  0  0  0
    0.1100   11.8900   -1.5830 C   0  0  1  0  0  0  0  0  0  0  0  0
   -0.9880   12.9160   -2.0060 C   0  0  0  0  0  0  0  0  0  0  0  0
    1.4970   12.2340   -2.2180 C   0  0  2  0  0  0  0  0  0  0  0  0
    2.0370   13.6360   -1.8840 C   0  0  0  0  0  0  0  0  0  0  0  0
    1.6470   14.7140   -2.8410 C   0  0  0  0  0  0  0  0  0  0  0  0
    1.1360   14.5210   -4.0710 C   0  0  0  0  0  0  0  0  0  0  0  0
    0.9940   13.1080   -4.6520 C   0  0  1  0  0  0  0  0  0  0  0  0
    1.5280   13.0910   -6.1080 C   0  0  0  0  0  0  0  0  0  0  0  0
    0.8690   14.1520   -6.9850 C   0  0  0  0  0  0  0  0  0  0  0  0
    1.0820   15.5480   -6.4050 C   0  0  2  0  0  0  0  0  0  0  0  0
    2.4740   15.8700   -6.4790 O   0  0  0  0  0  0  0  0  0  0  0  0
    0.5910   15.6830   -4.9370 C   0  0  0  0  0  0  0  0  0  0  0  0
   -0.9570   15.6330   -4.8990 C   0  0  0  0  0  0  0  0  0  0  0  0
    0.9920   17.0930   -4.4270 C   0  0  0  0  0  0  0  0  0  0  0  0
    1.5940   11.9310   -3.7680 C   0  0  1  0  0  0  0  0  0  0  0  0
    3.1080   11.7420   -4.0910 C   0  0  0  0  0  0  0  0  0  0  0  0
    0.8840   10.5810   -4.1590 C   0  0  0  0  0  0  0  0  0  0  0  0
   -0.4190   10.2390   -3.4120 C   0  0  0  0  0  0  0  0  0  0  0  0
   -0.2390   10.3900   -1.8990 C   0  0  2  0  0  0  0  0  0  0  0  0
    0.8440    9.3540   -1.4400 C   0  0  0  0  0  0  0  0  0  0  0  0
   -2.2443    6.9426   -1.9374 H   0  0  0  0  0  0  0  0  0  0  0  0
   -2.9250    8.4211   -2.6972 H   0  0  0  0  0  0  0  0  0  0  0  0
   -1.1497    8.1473   -2.6972 H   0  0  0  0  0  0  0  0  0  0  0  0
   -1.2230    8.2185   -0.1766 H   0  0  0  0  0  0  0  0  0  0  0  0
   -3.3461    7.8284    0.5889 H   0  0  0  0  0  0  0  0  0  0  0  0
   -3.3024    9.6562    0.6169 H   0  0  0  0  0  0  0  0  0  0  0  0
   -5.2402    9.5469   -0.4831 H   0  0  0  0  0  0  0  0  0  0  0  0
   -4.2120    9.1140   -1.9127 H   0  0  0  0  0  0  0  0  0  0  0  0
   -4.8131    7.1781   -0.0295 H   0  0  0  0  0  0  0  0  0  0  0  0
   -7.7413    9.0579   -1.4338 H   0  0  0  0  0  0  0  0  0  0  0  0
   -6.6546    9.0417   -2.8640 H   0  0  0  0  0  0  0  0  0  0  0  0
   -8.1540    8.0525   -2.8640 H   0  0  0  0  0  0  0  0  0  0  0  0
   -7.4289    5.9978   -0.1863 H   0  0  0  0  0  0  0  0  0  0  0  0
   -8.3910    6.1725   -1.6932 H   0  0  0  0  0  0  0  0  0  0  0  0
   -6.8945    5.1790   -1.6932 H   0  0  0  0  0  0  0  0  0  0  0  0
   -2.3876   10.5809   -1.5426 H   0  0  0  0  0  0  0  0  0  0  0  0
   -1.9909   11.5029    0.6553 H   0  0  0  0  0  0  0  0  0  0  0  0
   -0.8579   10.2021    1.0810 H   0  0  0  0  0  0  0  0  0  0  0  0
   -0.1297   12.8702    0.3621 H   0  0  0  0  0  0  0  0  0  0  0  0
    0.9975   11.5170    0.4079 H   0  0  0  0  0  0  0  0  0  0  0  0
   -1.4512   13.3488   -1.1071 H   0  0  0  0  0  0  0  0  0  0  0  0
   -0.5300   13.7173   -2.6045 H   0  0  0  0  0  0  0  0  0  0  0  0
   -1.7564   12.4048   -2.6045 H   0  0  0  0  0  0  0  0  0  0  0  0
    2.1702   11.5259   -1.7126 H   0  0  0  0  0  0  0  0  0  0  0  0
    1.6647   13.9152   -0.8873 H   0  0  0  0  0  0  0  0  0  0  0  0
    3.1331   13.5614   -1.9396 H   0  0  0  0  0  0  0  0  0  0  0  0
    1.7895   15.7542   -2.5127 H   0  0  0  0  0  0  0  0  0  0  0  0
   -0.0829   12.8838   -4.6467 H   0  0  0  0  0  0  0  0  0  0  0  0
    2.6125   13.2738   -6.0881 H   0  0  0  0  0  0  0  0  0  0  0  0
    1.2913   12.1071   -6.5392 H   0  0  0  0  0  0  0  0  0  0  0  0
    1.3083   14.1099   -7.9926 H   0  0  0  0  0  0  0  0  0  0  0  0
   -0.2116   13.9506   -7.0279 H   0  0  0  0  0  0  0  0  0  0  0  0
    0.4800   16.2489   -7.0020 H   0  0  0  0  0  0  0  0  0  0  0  0
    2.5710   16.8110   -6.2550 H   0  0  0  0  0  0  0  0  0  0  0  0
   -1.2979   15.6220   -3.8532 H   0  0  0  0  0  0  0  0  0  0  0  0
   -1.3651   16.5184   -5.4084 H   0  0  0  0  0  0  0  0  0  0  0  0
   -1.3071   14.7231   -5.4084 H   0  0  0  0  0  0  0  0  0  0  0  0
    0.9935   17.0983   -3.3270 H   0  0  0  0  0  0  0  0  0  0  0  0
    1.9972   17.3443   -4.7963 H   0  0  0  0  0  0  0  0  0  0  0  0
    0.2695   17.8357   -4.7963 H   0  0  0  0  0  0  0  0  0  0  0  0
    3.6771   11.6710   -3.1523 H   0  0  0  0  0  0  0  0  0  0  0  0
    3.2461   10.8196   -4.6742 H   0  0  0  0  0  0  0  0  0  0  0  0
    3.4686   12.6021   -4.6742 H   0  0  0  0  0  0  0  0  0  0  0  0
    0.6495   10.6273   -5.2327 H   0  0  0  0  0  0  0  0  0  0  0  0
    1.5940    9.7901   -3.8755 H   0  0  0  0  0  0  0  0  0  0  0  0
   -1.2159   10.9181   -3.7491 H   0  0  0  0  0  0  0  0  0  0  0  0
   -0.6851    9.1944   -3.6311 H   0  0  0  0  0  0  0  0  0  0  0  0
    0.8779    9.3216   -0.3410 H   0  0  0  0  0  0  0  0  0  0  0  0
    0.5862    8.3577   -1.8284 H   0  0  0  0  0  0  0  0  0  0  0  0
    1.8279    9.6557   -1.8284 H   0  0  0  0  0  0  0  0  0  0  0  0
  1  2  1  0
  2  3  1  0
  3  4  1  0
  4  5  1  0
  5  6  1  0
  6  7  1  0
  7  8  1  0
  7  9  1  0
  2 10  1  0
 10 11  1  0
 11 12  1  0
 12 13  1  0
 13 14  1  6
 13 15  1  0
 15 16  1  0
 16 17  1  0
 17 18  2  0
 18 19  1  0
 19 20  1  0
 20 21  1  0
 21 22  1  0
 22 23  1  0
 22 24  1  0
 24 25  1  0
 24 26  1  0
 19 27  1  0
 27 28  1  6
 27 29  1  0
 29 30  1  0
 30 31  1  0
 31 32  1  1
  7  5  1  0
 31 10  1  0
 31 13  1  0
 27 15  1  0
 24 18  1  0
  1 33  1  0
  1 34  1  0
  1 35  1  0
  2 36  1  1
  3 37  1  0
  3 38  1  0
  4 39  1  0
  4 40  1  0
  5 41  1  1
  8 42  1  0
  8 43  1  0
  8 44  1  0
  9 45  1  0
  9 46  1  0
  9 47  1  0
 10 48  1  6
 11 49  1  0
 11 50  1  0
 12 51  1  0
 12 52  1  0
 14 53  1  0
 14 54  1  0
 14 55  1  0
 15 56  1  1
 16 57  1  0
 16 58  1  0
 17 59  1  0
 19 60  1  6
 20 61  1  0
 20 62  1  0
 21 63  1  0
 21 64  1  0
 22 65  1  6
 23 66  1  0
 25 67  1  0
 25 68  1  0
 25 69  1  0
 26 70  1  0
 26 71  1  0
 26 72  1  0
 28 73  1  0
 28 74  1  0
 28 75  1  0
 29 76  1  0
 29 77  1  0
 30 78  1  0
 30 79  1  0
 32 80  1  0
 32 81  1  0
 32 82  1  0
M  END
>  <meeko>  (18) 
{"is_sidechain": [false], "intermolecular_energy": 2.731, "internal_energy": -0.839}

$$$$
EPH_relaxed_0001_pdb2pqr_Repair_262_r2_0001_out
     RDKit          3D

 82 86  0  0  0  0  0  0  0  0999 V2000
    3.2090   14.7580   -7.7200 C   0  0  0  0  0  0  0  0  0  0  0  0
    1.7730   15.2610   -7.5540 C   0  0  2  0  0  0  0  0  0  0  0  0
    1.6040   16.7110   -8.0480 C   0  0  0  0  0  0  0  0  0  0  0  0
    2.2420   16.9740   -9.4150 C   0  0  0  0  0  0  0  0  0  0  0  0
    1.4650   16.3280  -10.5220 C   0  0  2  0  0  0  0  0  0  0  0  0
    0.9230   15.0410  -10.2010 O   0  0  0  0  0  0  0  0  0  0  0  0
    1.9180   15.0690  -11.2380 C   0  0  0  0  0  0  0  0  0  0  0  0
    3.1960   14.3810  -10.8730 C   0  0  0  0  0  0  0  0  0  0  0  0
    1.3740   14.7880  -12.6030 C   0  0  0  0  0  0  0  0  0  0  0  0
    1.3520   15.1560   -6.0920 C   0  0  1  0  0  0  0  0  0  0  0  0
    0.0680   15.9700   -5.7810 C   0  0  0  0  0  0  0  0  0  0  0  0
   -0.7200   15.1700   -4.7110 C   0  0  0  0  0  0  0  0  0  0  0  0
    0.2820   14.1070   -4.2030 C   0  0  1  0  0  0  0  0  0  0  0  0
    1.1740   14.8590   -3.1660 C   0  0  0  0  0  0  0  0  0  0  0  0
   -0.3400   12.8070   -3.5950 C   0  0  2  0  0  0  0  0  0  0  0  0
   -1.1960   13.0210   -2.3350 C   0  0  0  0  0  0  0  0  0  0  0  0
   -0.4580   12.9370   -1.0400 C   0  0  0  0  0  0  0  0  0  0  0  0
    0.7750   12.4220   -0.8750 C   0  0  0  0  0  0  0  0  0  0  0  0
    1.5160   11.7630   -2.0450 C   0  0  1  0  0  0  0  0  0  0  0  0
    2.1250   10.4140   -1.5780 C   0  0  0  0  0  0  0  0  0  0  0  0
    3.0050   10.5660   -0.3410 C   0  0  0  0  0  0  0  0  0  0  0  0
    2.2160   11.1700    0.8180 C   0  0  2  0  0  0  0  0  0  0  0  0
    1.2150   10.2360    1.2310 O   0  0  0  0  0  0  0  0  0  0  0  0
    1.5480   12.5280    0.4620 C   0  0  0  0  0  0  0  0  0  0  0  0
    2.6370   13.6190    0.3080 C   0  0  0  0  0  0  0  0  0  0  0  0
    0.6700   12.9590    1.6680 C   0  0  0  0  0  0  0  0  0  0  0  0
    0.6940   11.6260   -3.3980 C   0  0  1  0  0  0  0  0  0  0  0  0
   -0.1360   10.3050   -3.3850 C   0  0  0  0  0  0  0  0  0  0  0  0
    1.7020   11.5050   -4.6020 C   0  0  0  0  0  0  0  0  0  0  0  0
    2.1870   12.8220   -5.2370 C   0  0  0  0  0  0  0  0  0  0  0  0
    1.0060   13.7460   -5.5510 C   0  0  2  0  0  0  0  0  0  0  0  0
    0.1030   13.0260   -6.6090 C   0  0  0  0  0  0  0  0  0  0  0  0
    3.6592   14.6003   -6.7288 H   0  0  0  0  0  0  0  0  0  0  0  0
    3.2030   13.8084   -8.2753 H   0  0  0  0  0  0  0  0  0  0  0  0
    3.7968   15.5037   -8.2753 H   0  0  0  0  0  0  0  0  0  0  0  0
    1.1255   14.6242   -8.1747 H   0  0  0  0  0  0  0  0  0  0  0  0
    0.5285   16.9306   -8.1187 H   0  0  0  0  0  0  0  0  0  0  0  0
    2.1181   17.3594   -7.3233 H   0  0  0  0  0  0  0  0  0  0  0  0
    2.2763   18.0595   -9.5897 H   0  0  0  0  0  0  0  0  0  0  0  0
    3.2544   16.5438   -9.4098 H   0  0  0  0  0  0  0  0  0  0  0  0
    1.1332   17.3089  -10.8932 H   0  0  0  0  0  0  0  0  0  0  0  0
    3.2864   14.3323   -9.7778 H   0  0  0  0  0  0  0  0  0  0  0  0
    3.1947   13.3617  -11.2865 H   0  0  0  0  0  0  0  0  0  0  0  0
    4.0462   14.9433  -11.2865 H   0  0  0  0  0  0  0  0  0  0  0  0
    0.4000   14.2849  -12.5131 H   0  0  0  0  0  0  0  0  0  0  0  0
    1.2488   15.7342  -13.1498 H   0  0  0  0  0  0  0  0  0  0  0  0
    2.0732   14.1383  -13.1498 H   0  0  0  0  0  0  0  0  0  0  0  0
    2.2668   15.5299   -5.6089 H   0  0  0  0  0  0  0  0  0  0  0  0
    0.3343   16.9636   -5.3913 H   0  0  0  0  0  0  0  0  0  0  0  0
   -0.5360   16.1175   -6.6885 H   0  0  0  0  0  0  0  0  0  0  0  0
   -1.0374   15.8287   -3.8892 H   0  0  0  0  0  0  0  0  0  0  0  0
   -1.6365   14.7185   -5.1186 H   0  0  0  0  0  0  0  0  0  0  0  0
    0.8568   14.5916   -2.1473 H   0  0  0  0  0  0  0  0  0  0  0  0
    2.2258   14.5710   -3.3100 H   0  0  0  0  0  0  0  0  0  0  0  0
    1.0680   15.9444   -3.3100 H   0  0  0  0  0  0  0  0  0  0  0  0
   -1.0410   12.4900   -4.3812 H   0  0  0  0  0  0  0  0  0  0  0  0
   -1.6541   14.0189   -2.4009 H   0  0  0  0  0  0  0  0  0  0  0  0
   -1.9278   12.1999   -2.3216 H   0  0  0  0  0  0  0  0  0  0  0  0
   -0.9641   13.3288   -0.1454 H   0  0  0  0  0  0  0  0  0  0  0  0
    2.3205   12.4586   -2.3259 H   0  0  0  0  0  0  0  0  0  0  0  0
    1.3049    9.7192   -1.3441 H   0  0  0  0  0  0  0  0  0  0  0  0
    2.7580   10.0336   -2.3932 H   0  0  0  0  0  0  0  0  0  0  0  0
    3.3817    9.5763   -0.0432 H   0  0  0  0  0  0  0  0  0  0  0  0
    3.8411   11.2379   -0.5849 H   0  0  0  0  0  0  0  0  0  0  0  0
    2.9284   11.3738    1.6310 H   0  0  0  0  0  0  0  0  0  0  0  0
    0.6450   10.0560    0.4640 H   0  0  0  0  0  0  0  0  0  0  0  0
    2.9676   13.9502    1.3035 H   0  0  0  0  0  0  0  0  0  0  0  0
    3.4940   13.2062   -0.2444 H   0  0  0  0  0  0  0  0  0  0  0  0
    2.2227   14.4752   -0.2444 H   0  0  0  0  0  0  0  0  0  0  0  0
    1.1857   12.7058    2.6060 H   0  0  0  0  0  0  0  0  0  0  0  0
    0.4969   14.0445    1.6262 H   0  0  0  0  0  0  0  0  0  0  0  0
   -0.2946   12.4320    1.6262 H   0  0  0  0  0  0  0  0  0  0  0  0
   -0.3265   10.0019   -2.3449 H   0  0  0  0  0  0  0  0  0  0  0  0
   -1.0939   10.4687   -3.9005 H   0  0  0  0  0  0  0  0  0  0  0  0
    0.4271    9.5131   -3.9005 H   0  0  0  0  0  0  0  0  0  0  0  0
    2.5887   10.9636   -4.2405 H   0  0  0  0  0  0  0  0  0  0  0  0
    1.1407   10.9919   -5.3968 H   0  0  0  0  0  0  0  0  0  0  0  0
    2.8658   13.3307   -4.5367 H   0  0  0  0  0  0  0  0  0  0  0  0
    2.7087   12.5875   -6.1766 H   0  0  0  0  0  0  0  0  0  0  0  0
   -0.6561   12.4207   -6.0920 H   0  0  0  0  0  0  0  0  0  0  0  0
   -0.3945   13.7781   -7.2390 H   0  0  0  0  0  0  0  0  0  0  0  0
    0.7254   12.3736   -7.2390 H   0  0  0  0  0  0  0  0  0  0  0  0
  1  2  1  0
  2  3  1  0
  3  4  1  0
  4  5  1  0
  5  6  1  0
  6  7  1  0
  7  8  1  0
  7  9  1  0
  2 10  1  0
 10 11  1  0
 11 12  1  0
 12 13  1  0
 13 14  1  1
 13 15  1  0
 15 16  1  0
 16 17  1  0
 17 18  2  0
 18 19  1  0
 19 20  1  0
 20 21  1  0
 21 22  1  0
 22 23  1  0
 22 24  1  0
 24 25  1  0
 24 26  1  0
 19 27  1  0
 27 28  1  1
 27 29  1  0
 29 30  1  0
 30 31  1  0
 31 32  1  6
  7  5  1  0
 31 10  1  0
 31 13  1  0
 27 15  1  0
 24 18  1  0
  1 33  1  0
  1 34  1  0
  1 35  1  0
  2 36  1  6
  3 37  1  0
  3 38  1  0
  4 39  1  0
  4 40  1  0
  5 41  1  6
  8 42  1  0
  8 43  1  0
  8 44  1  0
  9 45  1  0
  9 46  1  0
  9 47  1  0
 10 48  1  1
 11 49  1  0
 11 50  1  0
 12 51  1  0
 12 52  1  0
 14 53  1  0
 14 54  1  0
 14 55  1  0
 15 56  1  6
 16 57  1  0
 16 58  1  0
 17 59  1  0
 19 60  1  6
 20 61  1  0
 20 62  1  0
 21 63  1  0
 21 64  1  0
 22 65  1  1
 23 66  1  0
 25 67  1  0
 25 68  1  0
 25 69  1  0
 26 70  1  0
 26 71  1  0
 26 72  1  0
 28 73  1  0
 28 74  1  0
 28 75  1  0
 29 76  1  0
 29 77  1  0
 30 78  1  0
 30 79  1  0
 32 80  1  0
 32 81  1  0
 32 82  1  0
M  END
>  <meeko>  (19) 
{"is_sidechain": [false], "intermolecular_energy": 2.731, "internal_energy": -0.839}

$$$$
EPH_relaxed_0001_pdb2pqr_Repair_262_r2_0001_out
     RDKit          3D

 82 86  0  0  0  0  0  0  0  0999 V2000
   -0.2670    8.7850   -4.1050 C   0  0  0  0  0  0  0  0  0  0  0  0
   -0.0530    9.1520   -2.6330 C   0  0  2  0  0  0  0  0  0  0  0  0
   -0.9610    8.3330   -1.6930 C   0  0  0  0  0  0  0  0  0  0  0  0
   -2.4520    8.4470   -2.0240 C   0  0  0  0  0  0  0  0  0  0  0  0
   -2.9750    7.1970   -2.6640 C   0  0  2  0  0  0  0  0  0  0  0  0
   -3.9920    7.4100   -3.6510 O   0  0  0  0  0  0  0  0  0  0  0  0
   -4.3920    6.6890   -2.4740 C   0  0  0  0  0  0  0  0  0  0  0  0
   -5.3750    7.4220   -1.6160 C   0  0  0  0  0  0  0  0  0  0  0  0
   -4.6720    5.2400   -2.7210 C   0  0  0  0  0  0  0  0  0  0  0  0
   -0.3000   10.6420   -2.4280 C   0  0  1  0  0  0  0  0  0  0  0  0
   -1.7850   10.9630   -2.1100 C   0  0  0  0  0  0  0  0  0  0  0  0
   -1.7810   12.1550   -1.1180 C   0  0  0  0  0  0  0  0  0  0  0  0
   -0.3310   12.6900   -1.1560 C   0  0  1  0  0  0  0  0  0  0  0  0
   -0.2680   13.5880   -2.4320 C   0  0  0  0  0  0  0  0  0  0  0  0
    0.1560   13.4590    0.1150 C   0  0  2  0  0  0  0  0  0  0  0  0
   -0.6190   14.7490    0.4340 C   0  0  0  0  0  0  0  0  0  0  0  0
   -0.0690   15.9920   -0.1840 C   0  0  0  0  0  0  0  0  0  0  0  0
    1.1560   16.1200   -0.7260 C   0  0  0  0  0  0  0  0  0  0  0  0
    2.1680   14.9690   -0.6660 C   0  0  1  0  0  0  0  0  0  0  0  0
    3.5500   15.5170   -0.2220 C   0  0  0  0  0  0  0  0  0  0  0  0
    4.0300   16.6710   -1.0960 C   0  0  0  0  0  0  0  0  0  0  0  0
    3.0250   17.8200   -1.0850 C   0  0  2  0  0  0  0  0  0  0  0  0
    2.9890   18.3870    0.2290 O   0  0  0  0  0  0  0  0  0  0  0  0
    1.5930   17.3850   -1.5060 C   0  0  0  0  0  0  0  0  0  0  0  0
    1.5730   17.0550   -3.0180 C   0  0  0  0  0  0  0  0  0  0  0  0
    0.6490   18.6030   -1.3150 C   0  0  0  0  0  0  0  0  0  0  0  0
    1.7200   13.6950    0.1710 C   0  0  1  0  0  0  0  0  0  0  0  0
    2.0870   13.8890    1.6740 C   0  0  0  0  0  0  0  0  0  0  0  0
    2.5320   12.4410   -0.3260 C   0  0  0  0  0  0  0  0  0  0  0  0
    1.9380   11.6530   -1.5090 C   0  0  0  0  0  0  0  0  0  0  0  0
    0.4590   11.3360   -1.2700 C   0  0  2  0  0  0  0  0  0  0  0  0
    0.3660   10.4150   -0.0050 C   0  0  0  0  0  0  0  0  0  0  0  0
   -0.8201    7.8364   -4.1697 H   0  0  0  0  0  0  0  0  0  0  0  0
   -0.8431    9.5800   -4.6011 H   0  0  0  0  0  0  0  0  0  0  0  0
    0.7086    8.6751   -4.6011 H   0  0  0  0  0  0  0  0  0  0  0  0
    0.9895    8.9096   -2.3791 H   0  0  0  0  0  0  0  0  0  0  0  0
   -0.6695    7.2747   -1.7636 H   0  0  0  0  0  0  0  0  0  0  0  0
   -0.8246    8.7391   -0.6798 H   0  0  0  0  0  0  0  0  0  0  0  0
   -3.0103    8.6320   -1.0945 H   0  0  0  0  0  0  0  0  0  0  0  0
   -2.5830    9.2765   -2.7344 H   0  0  0  0  0  0  0  0  0  0  0  0
   -1.9957    6.7068   -2.5608 H   0  0  0  0  0  0  0  0  0  0  0  0
   -5.1392    7.2462   -0.5561 H   0  0  0  0  0  0  0  0  0  0  0  0
   -5.3173    8.4993   -1.8307 H   0  0  0  0  0  0  0  0  0  0  0  0
   -6.3911    7.0593   -1.8307 H   0  0  0  0  0  0  0  0  0  0  0  0
   -4.7731    4.7169   -1.7587 H   0  0  0  0  0  0  0  0  0  0  0  0
   -5.6062    5.1394   -3.2930 H   0  0  0  0  0  0  0  0  0  0  0  0
   -3.8425    4.7986   -3.2930 H   0  0  0  0  0  0  0  0  0  0  0  0
    0.0600   11.0234   -3.3949 H   0  0  0  0  0  0  0  0  0  0  0  0
   -2.3190   11.2385   -3.0314 H   0  0  0  0  0  0  0  0  0  0  0  0
   -2.2945   10.0896   -1.6768 H   0  0  0  0  0  0  0  0  0  0  0  0
   -2.4899   12.9315   -1.4413 H   0  0  0  0  0  0  0  0  0  0  0  0
   -2.0885   11.8555   -0.1052 H   0  0  0  0  0  0  0  0  0  0  0  0
   -0.1939   14.6442   -2.1338 H   0  0  0  0  0  0  0  0  0  0  0  0
    0.6131   13.3133   -3.0305 H   0  0  0  0  0  0  0  0  0  0  0  0
   -1.1788   13.4390   -3.0305 H   0  0  0  0  0  0  0  0  0  0  0  0
   -0.0893   12.7555    0.9242 H   0  0  0  0  0  0  0  0  0  0  0  0
   -1.6524   14.6214    0.0792 H   0  0  0  0  0  0  0  0  0  0  0  0
   -0.5414   14.8898    1.5222 H   0  0  0  0  0  0  0  0  0  0  0  0
   -0.7204   16.8783   -0.1974 H   0  0  0  0  0  0  0  0  0  0  0  0
    2.2355   14.5701   -1.6889 H   0  0  0  0  0  0  0  0  0  0  0  0
    3.4720   15.8702    0.8168 H   0  0  0  0  0  0  0  0  0  0  0  0
    4.2798   14.6996   -0.3181 H   0  0  0  0  0  0  0  0  0  0  0  0
    4.9956   17.0340   -0.7142 H   0  0  0  0  0  0  0  0  0  0  0  0
    4.1361   16.3079   -2.1289 H   0  0  0  0  0  0  0  0  0  0  0  0
    3.3593   18.5590   -1.8280 H   0  0  0  0  0  0  0  0  0  0  0  0
    3.7800   18.0810    0.7030 H   0  0  0  0  0  0  0  0  0  0  0  0
    1.5070   15.9655   -3.1547 H   0  0  0  0  0  0  0  0  0  0  0  0
    0.7024   17.5368   -3.4870 H   0  0  0  0  0  0  0  0  0  0  0  0
    2.4954   17.4281   -3.4870 H   0  0  0  0  0  0  0  0  0  0  0  0
    0.5042   18.7898   -0.2407 H   0  0  0  0  0  0  0  0  0  0  0  0
    1.0969   19.4912   -1.7845 H   0  0  0  0  0  0  0  0  0  0  0  0
   -0.3229   18.3908   -1.7845 H   0  0  0  0  0  0  0  0  0  0  0  0
    1.2895   13.4674    2.3035 H   0  0  0  0  0  0  0  0  0  0  0  0
    3.0349   13.3742    1.8894 H   0  0  0  0  0  0  0  0  0  0  0  0
    2.1955   14.9622    1.8894 H   0  0  0  0  0  0  0  0  0  0  0  0
    3.5312   12.7893   -0.6264 H   0  0  0  0  0  0  0  0  0  0  0  0
    2.5237   11.7388    0.5207 H   0  0  0  0  0  0  0  0  0  0  0  0
    2.0336   12.2537   -2.4255 H   0  0  0  0  0  0  0  0  0  0  0  0
    2.4876   10.7055   -1.6101 H   0  0  0  0  0  0  0  0  0  0  0  0
    0.4283   11.0323    0.9033 H   0  0  0  0  0  0  0  0  0  0  0  0
   -0.5914    9.8734   -0.0153 H   0  0  0  0  0  0  0  0  0  0  0  0
    1.1958    9.6930   -0.0153 H   0  0  0  0  0  0  0  0  0  0  0  0
  1  2  1  0
  2  3  1  0
  3  4  1  0
  4  5  1  0
  5  6  1  0
  6  7  1  0
  7  8  1  0
  7  9  1  0
  2 10  1  0
 10 11  1  0
 11 12  1  0
 12 13  1  0
 13 14  1  6
 13 15  1  0
 15 16  1  0
 16 17  1  0
 17 18  2  0
 18 19  1  0
 19 20  1  0
 20 21  1  0
 21 22  1  0
 22 23  1  0
 22 24  1  0
 24 25  1  0
 24 26  1  0
 19 27  1  0
 27 28  1  1
 27 29  1  0
 29 30  1  0
 30 31  1  0
 31 32  1  1
  7  5  1  0
 31 10  1  0
 31 13  1  0
 27 15  1  0
 24 18  1  0
  1 33  1  0
  1 34  1  0
  1 35  1  0
  2 36  1  1
  3 37  1  0
  3 38  1  0
  4 39  1  0
  4 40  1  0
  5 41  1  6
  8 42  1  0
  8 43  1  0
  8 44  1  0
  9 45  1  0
  9 46  1  0
  9 47  1  0
 10 48  1  6
 11 49  1  0
 11 50  1  0
 12 51  1  0
 12 52  1  0
 14 53  1  0
 14 54  1  0
 14 55  1  0
 15 56  1  1
 16 57  1  0
 16 58  1  0
 17 59  1  0
 19 60  1  6
 20 61  1  0
 20 62  1  0
 21 63  1  0
 21 64  1  0
 22 65  1  6
 23 66  1  0
 25 67  1  0
 25 68  1  0
 25 69  1  0
 26 70  1  0
 26 71  1  0
 26 72  1  0
 28 73  1  0
 28 74  1  0
 28 75  1  0
 29 76  1  0
 29 77  1  0
 30 78  1  0
 30 79  1  0
 32 80  1  0
 32 81  1  0
 32 82  1  0
M  END
>  <meeko>  (20) 
{"is_sidechain": [false], "intermolecular_energy": 2.731, "internal_energy": -0.839}

$$$$
