EPH_relaxed_0001_pdb2pqr_Repair_20_r2_0001_out
     RDKit          3D

 82 86  0  0  0  0  0  0  0  0999 V2000
   -1.7190    8.5790   -1.8750 C   0  0  0  0  0  0  0  0  0  0  0  0
   -2.1010    9.0970   -0.4860 C   0  0  2  0  0  0  0  0  0  0  0  0
   -3.5970    9.4600   -0.3920 C   0  0  0  0  0  0  0  0  0  0  0  0
   -4.5150    8.2460   -0.2270 C   0  0  0  0  0  0  0  0  0  0  0  0
   -5.2190    7.9060   -1.5060 C   0  0  2  0  0  0  0  0  0  0  0  0
   -6.3400    8.7450   -1.8130 O   0  0  0  0  0  0  0  0  0  0  0  0
   -6.6340    7.3610   -1.5620 C   0  0  0  0  0  0  0  0  0  0  0  0
   -7.4300    7.1250   -0.3170 C   0  0  0  0  0  0  0  0  0  0  0  0
   -7.0620    6.6050   -2.7810 C   0  0  0  0  0  0  0  0  0  0  0  0
   -1.2480   10.3090   -0.1300 C   0  0  1  0  0  0  0  0  0  0  0  0
   -0.2300   10.0110    1.0030 C   0  0  0  0  0  0  0  0  0  0  0  0
    1.0430   10.8390    0.6890 C   0  0  0  0  0  0  0  0  0  0  0  0
    0.6020   11.8300   -0.4140 C   0  0  1  0  0  0  0  0  0  0  0  0
   -0.1150   12.9870    0.3490 C   0  0  0  0  0  0  0  0  0  0  0  0
    1.7320   12.3690   -1.3500 C   0  0  2  0  0  0  0  0  0  0  0  0
    2.8260   13.1910   -0.6450 C   0  0  0  0  0  0  0  0  0  0  0  0
    2.5720   14.6600   -0.5720 C   0  0  0  0  0  0  0  0  0  0  0  0
    1.6570   15.3330   -1.2950 C   0  0  0  0  0  0  0  0  0  0  0  0
    0.8260   14.6220   -2.3710 C   0  0  1  0  0  0  0  0  0  0  0  0
    0.8130   15.4780   -3.6650 C   0  0  0  0  0  0  0  0  0  0  0  0
    0.3450   16.9080   -3.4150 C   0  0  0  0  0  0  0  0  0  0  0  0
    1.2310   17.6010   -2.3830 C   0  0  2  0  0  0  0  0  0  0  0  0
    2.5390   17.7690   -2.9370 O   0  0  0  0  0  0  0  0  0  0  0  0
    1.3280   16.8240   -1.0400 C   0  0  0  0  0  0  0  0  0  0  0  0
   -0.0280   16.9020   -0.2940 C   0  0  0  0  0  0  0  0  0  0  0  0
    2.3610   17.5550   -0.1400 C   0  0  0  0  0  0  0  0  0  0  0  0
    1.2040   13.1030   -2.6480 C   0  0  1  0  0  0  0  0  0  0  0  0
    2.3490   13.0240   -3.7030 C   0  0  0  0  0  0  0  0  0  0  0  0
   -0.0370   12.3730   -3.2850 C   0  0  0  0  0  0  0  0  0  0  0  0
   -1.0570   11.7570   -2.3080 C   0  0  0  0  0  0  0  0  0  0  0  0
   -0.3550   10.9030   -1.2480 C   0  0  2  0  0  0  0  0  0  0  0  0
    0.3580    9.7180   -1.9840 C   0  0  0  0  0  0  0  0  0  0  0  0
   -1.0690    7.6976   -1.7717 H   0  0  0  0  0  0  0  0  0  0  0  0
   -2.6296    8.3005   -2.4257 H   0  0  0  0  0  0  0  0  0  0  0  0
   -1.1839    9.3667   -2.4257 H   0  0  0  0  0  0  0  0  0  0  0  0
   -1.9125    8.2856    0.2324 H   0  0  0  0  0  0  0  0  0  0  0  0
   -3.7397   10.1237    0.4736 H   0  0  0  0  0  0  0  0  0  0  0  0
   -3.8709    9.9439   -1.3411 H   0  0  0  0  0  0  0  0  0  0  0  0
   -3.9109    7.3824    0.0880 H   0  0  0  0  0  0  0  0  0  0  0  0
   -5.2758    8.4913    0.5287 H   0  0  0  0  0  0  0  0  0  0  0  0
   -4.2779    7.5636   -1.9612 H   0  0  0  0  0  0  0  0  0  0  0  0
   -6.7978    7.3124    0.5634 H   0  0  0  0  0  0  0  0  0  0  0  0
   -8.2940    7.8056   -0.2996 H   0  0  0  0  0  0  0  0  0  0  0  0
   -7.7834    6.0834   -0.2996 H   0  0  0  0  0  0  0  0  0  0  0  0
   -7.5829    5.6849   -2.4777 H   0  0  0  0  0  0  0  0  0  0  0  0
   -7.7404    7.2298   -3.3805 H   0  0  0  0  0  0  0  0  0  0  0  0
   -6.1772    6.3448   -3.3805 H   0  0  0  0  0  0  0  0  0  0  0  0
   -2.0424   11.0219    0.1359 H   0  0  0  0  0  0  0  0  0  0  0  0
   -0.6469   10.3113    1.9756 H   0  0  0  0  0  0  0  0  0  0  0  0
    0.0002    8.9366    1.0549 H   0  0  0  0  0  0  0  0  0  0  0  0
    1.3845   11.3805    1.5835 H   0  0  0  0  0  0  0  0  0  0  0  0
    1.8838   10.2060    0.3691 H   0  0  0  0  0  0  0  0  0  0  0  0
   -0.0164   12.8278    1.4329 H   0  0  0  0  0  0  0  0  0  0  0  0
    0.3464   13.9475    0.0760 H   0  0  0  0  0  0  0  0  0  0  0  0
   -1.1805   13.0013    0.0760 H   0  0  0  0  0  0  0  0  0  0  0  0
    2.2224   11.4431   -1.6849 H   0  0  0  0  0  0  0  0  0  0  0  0
    2.9268   12.8120    0.3827 H   0  0  0  0  0  0  0  0  0  0  0  0
    3.7361   13.0692   -1.2507 H   0  0  0  0  0  0  0  0  0  0  0  0
    3.1843   15.2422    0.1323 H   0  0  0  0  0  0  0  0  0  0  0  0
   -0.1934   14.5432   -1.9652 H   0  0  0  0  0  0  0  0  0  0  0  0
    1.8319   15.5075   -4.0786 H   0  0  0  0  0  0  0  0  0  0  0  0
    0.1049   15.0125   -4.3664 H   0  0  0  0  0  0  0  0  0  0  0  0
    0.3858   17.4702   -4.3596 H   0  0  0  0  0  0  0  0  0  0  0  0
   -0.6846   16.8774   -3.0289 H   0  0  0  0  0  0  0  0  0  0  0  0
    0.7704   18.5727   -2.1513 H   0  0  0  0  0  0  0  0  0  0  0  0
    3.1820   17.6310   -2.2210 H   0  0  0  0  0  0  0  0  0  0  0  0
    0.1496   16.8918    0.7915 H   0  0  0  0  0  0  0  0  0  0  0  0
   -0.5465   17.8315   -0.5720 H   0  0  0  0  0  0  0  0  0  0  0  0
   -0.6497   16.0381   -0.5720 H   0  0  0  0  0  0  0  0  0  0  0  0
    2.1143   17.3804    0.9177 H   0  0  0  0  0  0  0  0  0  0  0  0
    3.3690   17.1681   -0.3501 H   0  0  0  0  0  0  0  0  0  0  0  0
    2.3314   18.6344   -0.3501 H   0  0  0  0  0  0  0  0  0  0  0  0
    3.3185   12.9571   -3.1876 H   0  0  0  0  0  0  0  0  0  0  0  0
    2.2064   12.1336   -4.3329 H   0  0  0  0  0  0  0  0  0  0  0  0
    2.3300   13.9256   -4.3329 H   0  0  0  0  0  0  0  0  0  0  0  0
   -0.5720   13.1065   -3.9060 H   0  0  0  0  0  0  0  0  0  0  0  0
    0.3832   11.5202   -3.8383 H   0  0  0  0  0  0  0  0  0  0  0  0
   -1.6111   12.5658   -1.8092 H   0  0  0  0  0  0  0  0  0  0  0  0
   -1.7438   11.1138   -2.8778 H   0  0  0  0  0  0  0  0  0  0  0  0
    0.7761    9.0232   -1.2407 H   0  0  0  0  0  0  0  0  0  0  0  0
   -0.3703    9.1863   -2.6140 H   0  0  0  0  0  0  0  0  0  0  0  0
    1.1689   10.1124   -2.6140 H   0  0  0  0  0  0  0  0  0  0  0  0
  1  2  1  0
  2  3  1  0
  3  4  1  0
  4  5  1  0
  5  6  1  0
  6  7  1  0
  7  8  1  0
  7  9  1  0
  2 10  1  0
 10 11  1  0
 11 12  1  0
 12 13  1  0
 13 14  1  1
 13 15  1  0
 15 16  1  0
 16 17  1  0
 17 18  2  0
 18 19  1  0
 19 20  1  0
 20 21  1  0
 21 22  1  0
 22 23  1  0
 22 24  1  0
 24 25  1  0
 24 26  1  0
 19 27  1  0
 27 28  1  6
 27 29  1  0
 29 30  1  0
 30 31  1  0
 31 32  1  6
  7  5  1  0
 31 10  1  0
 31 13  1  0
 27 15  1  0
 24 18  1  0
  1 33  1  0
  1 34  1  0
  1 35  1  0
  2 36  1  1
  3 37  1  0
  3 38  1  0
  4 39  1  0
  4 40  1  0
  5 41  1  6
  8 42  1  0
  8 43  1  0
  8 44  1  0
  9 45  1  0
  9 46  1  0
  9 47  1  0
 10 48  1  1
 11 49  1  0
 11 50  1  0
 12 51  1  0
 12 52  1  0
 14 53  1  0
 14 54  1  0
 14 55  1  0
 15 56  1  6
 16 57  1  0
 16 58  1  0
 17 59  1  0
 19 60  1  1
 20 61  1  0
 20 62  1  0
 21 63  1  0
 21 64  1  0
 22 65  1  1
 23 66  1  0
 25 67  1  0
 25 68  1  0
 25 69  1  0
 26 70  1  0
 26 71  1  0
 26 72  1  0
 28 73  1  0
 28 74  1  0
 28 75  1  0
 29 76  1  0
 29 77  1  0
 30 78  1  0
 30 79  1  0
 32 80  1  0
 32 81  1  0
 32 82  1  0
M  END
>  <meeko>  (1) 
{"is_sidechain": [false], "intermolecular_energy": 2.731, "internal_energy": -0.839}

$$$$
EPH_relaxed_0001_pdb2pqr_Repair_20_r2_0001_out
     RDKit          3D

 82 86  0  0  0  0  0  0  0  0999 V2000
    4.2480   17.5680   -0.5900 C   0  0  0  0  0  0  0  0  0  0  0  0
    2.8850   18.1440   -0.1970 C   0  0  2  0  0  0  0  0  0  0  0  0
    2.9280   18.8620    1.1660 C   0  0  0  0  0  0  0  0  0  0  0  0
    4.2340   18.6440    1.9350 C   0  0  0  0  0  0  0  0  0  0  0  0
    4.1500   19.1780    3.3330 C   0  0  2  0  0  0  0  0  0  0  0  0
    5.1110   20.1940    3.6450 O   0  0  0  0  0  0  0  0  0  0  0  0
    5.2300   18.9640    4.3770 C   0  0  0  0  0  0  0  0  0  0  0  0
    6.4730   18.1890    4.0660 C   0  0  0  0  0  0  0  0  0  0  0  0
    4.8620   19.0850    5.8230 C   0  0  0  0  0  0  0  0  0  0  0  0
    1.8410   17.0330   -0.1680 C   0  0  1  0  0  0  0  0  0  0  0  0
    0.4060   17.5530   -0.4480 C   0  0  0  0  0  0  0  0  0  0  0  0
   -0.3270   16.4400   -1.2400 C   0  0  0  0  0  0  0  0  0  0  0  0
    0.5850   15.1990   -1.1020 C   0  0  1  0  0  0  0  0  0  0  0  0
    0.2420   14.6030    0.2990 C   0  0  0  0  0  0  0  0  0  0  0  0
    0.4640   14.1240   -2.2310 C   0  0  2  0  0  0  0  0  0  0  0  0
   -0.9160   13.4560   -2.3520 C   0  0  0  0  0  0  0  0  0  0  0  0
   -1.0970   12.2160   -1.5400 C   0  0  0  0  0  0  0  0  0  0  0  0
   -0.1080   11.5020   -0.9710 C   0  0  0  0  0  0  0  0  0  0  0  0
    1.3630   11.8720   -1.2010 C   0  0  1  0  0  0  0  0  0  0  0  0
    2.1720   10.5930   -1.5380 C   0  0  0  0  0  0  0  0  0  0  0  0
    2.0030    9.5000   -0.4870 C   0  0  0  0  0  0  0  0  0  0  0  0
    0.5340    9.1180   -0.3290 C   0  0  2  0  0  0  0  0  0  0  0  0
    0.0870    8.4940   -1.5370 O   0  0  0  0  0  0  0  0  0  0  0  0
   -0.3820   10.3290    0.0030 C   0  0  0  0  0  0  0  0  0  0  0  0
   -0.0970   10.8180    1.4440 C   0  0  0  0  0  0  0  0  0  0  0  0
   -1.8530    9.8320   -0.0040 C   0  0  0  0  0  0  0  0  0  0  0  0
    1.6280   13.0520   -2.2330 C   0  0  1  0  0  0  0  0  0  0  0  0
    1.7070   12.4830   -3.6820 C   0  0  0  0  0  0  0  0  0  0  0  0
    3.0340   13.6940   -1.9300 C   0  0  0  0  0  0  0  0  0  0  0  0
    3.0690   14.8310   -0.8920 C   0  0  0  0  0  0  0  0  0  0  0  0
    1.9970   15.8830   -1.1950 C   0  0  2  0  0  0  0  0  0  0  0  0
    2.3290   16.5160   -2.5890 C   0  0  0  0  0  0  0  0  0  0  0  0
    4.8196   17.3264    0.3182 H   0  0  0  0  0  0  0  0  0  0  0  0
    4.1022   16.6546   -1.1853 H   0  0  0  0  0  0  0  0  0  0  0  0
    4.8014   18.3092   -1.1853 H   0  0  0  0  0  0  0  0  0  0  0  0
    2.6114   18.8928   -0.9549 H   0  0  0  0  0  0  0  0  0  0  0  0
    2.8020   19.9412    0.9943 H   0  0  0  0  0  0  0  0  0  0  0  0
    2.1191   18.4376    1.7788 H   0  0  0  0  0  0  0  0  0  0  0  0
    4.4469   17.5656    1.9775 H   0  0  0  0  0  0  0  0  0  0  0  0
    5.0356   19.1837    1.4094 H   0  0  0  0  0  0  0  0  0  0  0  0
    3.0619   19.0178    3.3533 H   0  0  0  0  0  0  0  0  0  0  0  0
    6.9601   17.8853    5.0043 H   0  0  0  0  0  0  0  0  0  0  0  0
    6.2108   17.2941    3.4826 H   0  0  0  0  0  0  0  0  0  0  0  0
    7.1612   18.8184    3.4826 H   0  0  0  0  0  0  0  0  0  0  0  0
    5.7235   18.8017    6.4455 H   0  0  0  0  0  0  0  0  0  0  0  0
    4.5766   20.1243    6.0430 H   0  0  0  0  0  0  0  0  0  0  0  0
    4.0155   18.4179    6.0430 H   0  0  0  0  0  0  0  0  0  0  0  0
    2.0058   16.6529    0.8510 H   0  0  0  0  0  0  0  0  0  0  0  0
   -0.1168   17.7506    0.4994 H   0  0  0  0  0  0  0  0  0  0  0  0
    0.4311   18.4927   -1.0192 H   0  0  0  0  0  0  0  0  0  0  0  0
   -1.3187   16.2435   -0.8064 H   0  0  0  0  0  0  0  0  0  0  0  0
   -0.4973   16.7182   -2.2905 H   0  0  0  0  0  0  0  0  0  0  0  0
    0.6258   15.2699    1.0851 H   0  0  0  0  0  0  0  0  0  0  0  0
   -0.8492   14.5075    0.3997 H   0  0  0  0  0  0  0  0  0  0  0  0
    0.7077   13.6115    0.3997 H   0  0  0  0  0  0  0  0  0  0  0  0
    0.5838   14.7268   -3.1433 H   0  0  0  0  0  0  0  0  0  0  0  0
   -1.6757   14.1849   -2.0335 H   0  0  0  0  0  0  0  0  0  0  0  0
   -1.0145   13.1486   -3.4036 H   0  0  0  0  0  0  0  0  0  0  0  0
   -2.1260   11.8554   -1.3945 H   0  0  0  0  0  0  0  0  0  0  0  0
    1.7207   12.3005   -0.2531 H   0  0  0  0  0  0  0  0  0  0  0  0
    1.8297   10.2048   -2.5086 H   0  0  0  0  0  0  0  0  0  0  0  0
    3.2366   10.8687   -1.5649 H   0  0  0  0  0  0  0  0  0  0  0  0
    2.5747    8.6123   -0.7956 H   0  0  0  0  0  0  0  0  0  0  0  0
    2.3728    9.8795    0.4770 H   0  0  0  0  0  0  0  0  0  0  0  0
    0.4631    8.4278    0.5246 H   0  0  0  0  0  0  0  0  0  0  0  0
    0.8710    8.1530   -2.0000 H   0  0  0  0  0  0  0  0  0  0  0  0
   -0.5156   10.0998    2.1644 H   0  0  0  0  0  0  0  0  0  0  0  0
    0.9895   10.8986    1.5957 H   0  0  0  0  0  0  0  0  0  0  0  0
   -0.5624   11.8031    1.5957 H   0  0  0  0  0  0  0  0  0  0  0  0
   -2.2048    9.7131    1.0314 H   0  0  0  0  0  0  0  0  0  0  0  0
   -2.4856   10.5663   -0.5242 H   0  0  0  0  0  0  0  0  0  0  0  0
   -1.9107    8.8645   -0.5242 H   0  0  0  0  0  0  0  0  0  0  0  0
    1.8582   11.3942   -3.6406 H   0  0  0  0  0  0  0  0  0  0  0  0
    0.7697   12.7031   -4.2140 H   0  0  0  0  0  0  0  0  0  0  0  0
    2.5489   12.9501   -4.2140 H   0  0  0  0  0  0  0  0  0  0  0  0
    3.6947   12.8925   -1.5680 H   0  0  0  0  0  0  0  0  0  0  0  0
    3.3483   14.1584   -2.8763 H   0  0  0  0  0  0  0  0  0  0  0  0
    2.8882   14.4107    0.1084 H   0  0  0  0  0  0  0  0  0  0  0  0
    4.0564   15.3141   -0.9339 H   0  0  0  0  0  0  0  0  0  0  0  0
    2.8353   17.4814   -2.4421 H   0  0  0  0  0  0  0  0  0  0  0  0
    2.9878   15.8384   -3.1519 H   0  0  0  0  0  0  0  0  0  0  0  0
    1.3970   16.6727   -3.1519 H   0  0  0  0  0  0  0  0  0  0  0  0
  1  2  1  0
  2  3  1  0
  3  4  1  0
  4  5  1  0
  5  6  1  0
  6  7  1  0
  7  8  1  0
  7  9  1  0
  2 10  1  0
 10 11  1  0
 11 12  1  0
 12 13  1  0
 13 14  1  1
 13 15  1  0
 15 16  1  0
 16 17  1  0
 17 18  2  0
 18 19  1  0
 19 20  1  0
 20 21  1  0
 21 22  1  0
 22 23  1  0
 22 24  1  0
 24 25  1  0
 24 26  1  0
 19 27  1  0
 27 28  1  6
 27 29  1  0
 29 30  1  0
 30 31  1  0
 31 32  1  6
  7  5  1  0
 31 10  1  0
 31 13  1  0
 27 15  1  0
 24 18  1  0
  1 33  1  0
  1 34  1  0
  1 35  1  0
  2 36  1  6
  3 37  1  0
  3 38  1  0
  4 39  1  0
  4 40  1  0
  5 41  1  1
  8 42  1  0
  8 43  1  0
  8 44  1  0
  9 45  1  0
  9 46  1  0
  9 47  1  0
 10 48  1  1
 11 49  1  0
 11 50  1  0
 12 51  1  0
 12 52  1  0
 14 53  1  0
 14 54  1  0
 14 55  1  0
 15 56  1  6
 16 57  1  0
 16 58  1  0
 17 59  1  0
 19 60  1  1
 20 61  1  0
 20 62  1  0
 21 63  1  0
 21 64  1  0
 22 65  1  1
 23 66  1  0
 25 67  1  0
 25 68  1  0
 25 69  1  0
 26 70  1  0
 26 71  1  0
 26 72  1  0
 28 73  1  0
 28 74  1  0
 28 75  1  0
 29 76  1  0
 29 77  1  0
 30 78  1  0
 30 79  1  0
 32 80  1  0
 32 81  1  0
 32 82  1  0
M  END
>  <meeko>  (2) 
{"is_sidechain": [false], "intermolecular_energy": 2.731, "internal_energy": -0.839}

$$$$
EPH_relaxed_0001_pdb2pqr_Repair_20_r2_0001_out
     RDKit          3D

 82 86  0  0  0  0  0  0  0  0999 V2000
    2.3780   17.9870   -2.6590 C   0  0  0  0  0  0  0  0  0  0  0  0
    1.0620   17.6070   -1.9730 C   0  0  2  0  0  0  0  0  0  0  0  0
    1.1670   17.6770   -0.4360 C   0  0  0  0  0  0  0  0  0  0  0  0
    0.8380   19.0560    0.1410 C   0  0  0  0  0  0  0  0  0  0  0  0
   -0.6090   19.1700    0.5160 C   0  0  2  0  0  0  0  0  0  0  0  0
   -1.4770   18.2540   -0.1650 O   0  0  0  0  0  0  0  0  0  0  0  0
   -1.6850   19.6490   -0.4400 C   0  0  0  0  0  0  0  0  0  0  0  0
   -1.3600   20.0460   -1.8460 C   0  0  0  0  0  0  0  0  0  0  0  0
   -2.9580   20.1930    0.1300 C   0  0  0  0  0  0  0  0  0  0  0  0
    0.6370   16.2080   -2.4030 C   0  0  1  0  0  0  0  0  0  0  0  0
    0.7800   15.9840   -3.9320 C   0  0  0  0  0  0  0  0  0  0  0  0
    1.1980   14.5040   -4.1300 C   0  0  0  0  0  0  0  0  0  0  0  0
    0.9590   13.8440   -2.7520 C   0  0  1  0  0  0  0  0  0  0  0  0
   -0.5710   13.5390   -2.7130 C   0  0  0  0  0  0  0  0  0  0  0  0
    1.8100   12.5700   -2.4400 C   0  0  2  0  0  0  0  0  0  0  0  0
    1.5650   11.3760   -3.3780 C   0  0  0  0  0  0  0  0  0  0  0  0
    0.4980   10.4280   -2.9380 C   0  0  0  0  0  0  0  0  0  0  0  0
   -0.0360   10.3700   -1.7040 C   0  0  0  0  0  0  0  0  0  0  0  0
    0.5010   11.2540   -0.5710 C   0  0  1  0  0  0  0  0  0  0  0  0
    0.6960   10.3960    0.7070 C   0  0  0  0  0  0  0  0  0  0  0  0
   -0.5690    9.6420    1.1050 C   0  0  0  0  0  0  0  0  0  0  0  0
   -1.0390    8.7300   -0.0260 C   0  0  2  0  0  0  0  0  0  0  0  0
   -0.0730    7.6910   -0.2110 O   0  0  0  0  0  0  0  0  0  0  0  0
   -1.2600    9.4830   -1.3680 C   0  0  0  0  0  0  0  0  0  0  0  0
   -2.5060   10.3960   -1.2530 C   0  0  0  0  0  0  0  0  0  0  0  0
   -1.5940    8.4280   -2.4570 C   0  0  0  0  0  0  0  0  0  0  0  0
    1.7810   12.1280   -0.9210 C   0  0  1  0  0  0  0  0  0  0  0  0
    3.0770   11.2960   -0.6740 C   0  0  0  0  0  0  0  0  0  0  0  0
    1.8490   13.3570    0.0620 C   0  0  0  0  0  0  0  0  0  0  0  0
    1.0850   14.6270   -0.3600 C   0  0  0  0  0  0  0  0  0  0  0  0
    1.4180   15.0120   -1.8050 C   0  0  2  0  0  0  0  0  0  0  0  0
    2.9480   15.3460   -1.8700 C   0  0  0  0  0  0  0  0  0  0  0  0
    3.1392   18.2068   -1.8959 H   0  0  0  0  0  0  0  0  0  0  0  0
    2.7191   17.1506   -3.2868 H   0  0  0  0  0  0  0  0  0  0  0  0
    2.2207   18.8764   -3.2868 H   0  0  0  0  0  0  0  0  0  0  0  0
    0.3024   18.3387   -2.2855 H   0  0  0  0  0  0  0  0  0  0  0  0
    0.4674   16.9449   -0.0064 H   0  0  0  0  0  0  0  0  0  0  0  0
    2.2135   17.4607   -0.1751 H   0  0  0  0  0  0  0  0  0  0  0  0
    1.4528   19.2230    1.0378 H   0  0  0  0  0  0  0  0  0  0  0  0
    1.0525   19.8103   -0.6304 H   0  0  0  0  0  0  0  0  0  0  0  0
   -0.3449   19.4716    1.5403 H   0  0  0  0  0  0  0  0  0  0  0  0
   -0.6632   20.8971   -1.8349 H   0  0  0  0  0  0  0  0  0  0  0  0
   -0.8940   19.1974   -2.3682 H   0  0  0  0  0  0  0  0  0  0  0  0
   -2.2839   20.3353   -2.3682 H   0  0  0  0  0  0  0  0  0  0  0  0
   -2.9067   20.1711    1.2286 H   0  0  0  0  0  0  0  0  0  0  0  0
   -3.0984   21.2297   -0.2099 H   0  0  0  0  0  0  0  0  0  0  0  0
   -3.8043   19.5779   -0.2099 H   0  0  0  0  0  0  0  0  0  0  0  0
   -0.3973   16.2065   -2.0285 H   0  0  0  0  0  0  0  0  0  0  0  0
   -0.1792   16.1772   -4.4345 H   0  0  0  0  0  0  0  0  0  0  0  0
    1.5272   16.6666   -4.3630 H   0  0  0  0  0  0  0  0  0  0  0  0
    0.5783   14.0254   -4.9026 H   0  0  0  0  0  0  0  0  0  0  0  0
    2.2414   14.4061   -4.4643 H   0  0  0  0  0  0  0  0  0  0  0  0
   -0.9051   13.4724   -1.6671 H   0  0  0  0  0  0  0  0  0  0  0  0
   -1.1188   14.3456   -3.2222 H   0  0  0  0  0  0  0  0  0  0  0  0
   -0.7676   12.5840   -3.2222 H   0  0  0  0  0  0  0  0  0  0  0  0
    2.8336   12.9115   -2.6535 H   0  0  0  0  0  0  0  0  0  0  0  0
    1.2827   11.7713   -4.3649 H   0  0  0  0  0  0  0  0  0  0  0  0
    2.5010   10.7983   -3.3864 H   0  0  0  0  0  0  0  0  0  0  0  0
    0.1164    9.7172   -3.6857 H   0  0  0  0  0  0  0  0  0  0  0  0
   -0.2678   12.0201   -0.3922 H   0  0  0  0  0  0  0  0  0  0  0  0
    1.4980    9.6661    0.5225 H   0  0  0  0  0  0  0  0  0  0  0  0
    0.9508   11.0784    1.5312 H   0  0  0  0  0  0  0  0  0  0  0  0
   -0.3592    9.0319    1.9959 H   0  0  0  0  0  0  0  0  0  0  0  0
   -1.3618   10.3741    1.3183 H   0  0  0  0  0  0  0  0  0  0  0  0
   -2.0157    8.3172    0.2666 H   0  0  0  0  0  0  0  0  0  0  0  0
   -0.4000    7.1080   -0.9170 H   0  0  0  0  0  0  0  0  0  0  0  0
   -2.7388   10.5666   -0.1915 H   0  0  0  0  0  0  0  0  0  0  0  0
   -2.3012   11.3593   -1.7429 H   0  0  0  0  0  0  0  0  0  0  0  0
   -3.3629    9.9104   -1.7429 H   0  0  0  0  0  0  0  0  0  0  0  0
   -1.8924    7.4853   -1.9750 H   0  0  0  0  0  0  0  0  0  0  0  0
   -2.4194    8.7967   -3.0838 H   0  0  0  0  0  0  0  0  0  0  0  0
   -0.7068    8.2545   -3.0838 H   0  0  0  0  0  0  0  0  0  0  0  0
    3.2435   11.1891    0.4081 H   0  0  0  0  0  0  0  0  0  0  0  0
    2.9656   10.3002   -1.1279 H   0  0  0  0  0  0  0  0  0  0  0  0
    3.9360   11.8119   -1.1279 H   0  0  0  0  0  0  0  0  0  0  0  0
    1.4431   13.0310    1.0310 H   0  0  0  0  0  0  0  0  0  0  0  0
    2.9086   13.6516    0.0818 H   0  0  0  0  0  0  0  0  0  0  0  0
    0.0040   14.4410   -0.2771 H   0  0  0  0  0  0  0  0  0  0  0  0
    1.3852   15.4531    0.3014 H   0  0  0  0  0  0  0  0  0  0  0  0
    3.3479   15.4333   -0.8490 H   0  0  0  0  0  0  0  0  0  0  0  0
    3.4765   14.5421   -2.4033 H   0  0  0  0  0  0  0  0  0  0  0  0
    3.0934   16.2970   -2.4033 H   0  0  0  0  0  0  0  0  0  0  0  0
  1  2  1  0
  2  3  1  0
  3  4  1  0
  4  5  1  0
  5  6  1  0
  6  7  1  0
  7  8  1  0
  7  9  1  0
  2 10  1  0
 10 11  1  0
 11 12  1  0
 12 13  1  0
 13 14  1  1
 13 15  1  0
 15 16  1  0
 16 17  1  0
 17 18  2  0
 18 19  1  0
 19 20  1  0
 20 21  1  0
 21 22  1  0
 22 23  1  0
 22 24  1  0
 24 25  1  0
 24 26  1  0
 19 27  1  0
 27 28  1  1
 27 29  1  0
 29 30  1  0
 30 31  1  0
 31 32  1  1
  7  5  1  0
 31 10  1  0
 31 13  1  0
 27 15  1  0
 24 18  1  0
  1 33  1  0
  1 34  1  0
  1 35  1  0
  2 36  1  6
  3 37  1  0
  3 38  1  0
  4 39  1  0
  4 40  1  0
  5 41  1  1
  8 42  1  0
  8 43  1  0
  8 44  1  0
  9 45  1  0
  9 46  1  0
  9 47  1  0
 10 48  1  1
 11 49  1  0
 11 50  1  0
 12 51  1  0
 12 52  1  0
 14 53  1  0
 14 54  1  0
 14 55  1  0
 15 56  1  6
 16 57  1  0
 16 58  1  0
 17 59  1  0
 19 60  1  1
 20 61  1  0
 20 62  1  0
 21 63  1  0
 21 64  1  0
 22 65  1  1
 23 66  1  0
 25 67  1  0
 25 68  1  0
 25 69  1  0
 26 70  1  0
 26 71  1  0
 26 72  1  0
 28 73  1  0
 28 74  1  0
 28 75  1  0
 29 76  1  0
 29 77  1  0
 30 78  1  0
 30 79  1  0
 32 80  1  0
 32 81  1  0
 32 82  1  0
M  END
>  <meeko>  (3) 
{"is_sidechain": [false], "intermolecular_energy": 2.731, "internal_energy": -0.839}

$$$$
EPH_relaxed_0001_pdb2pqr_Repair_20_r2_0001_out
     RDKit          3D

 82 86  0  0  0  0  0  0  0  0999 V2000
    0.4230   18.4170   -0.0330 C   0  0  0  0  0  0  0  0  0  0  0  0
    1.5080   17.3570   -0.2460 C   0  0  2  0  0  0  0  0  0  0  0  0
    2.7240   17.9170   -1.0110 C   0  0  0  0  0  0  0  0  0  0  0  0
    3.9600   18.1290   -0.1310 C   0  0  0  0  0  0  0  0  0  0  0  0
    3.5880   18.5980    1.2430 C   0  0  2  0  0  0  0  0  0  0  0  0
    3.8270   19.9910    1.4850 O   0  0  0  0  0  0  0  0  0  0  0  0
    4.6020   19.0690    2.2690 C   0  0  0  0  0  0  0  0  0  0  0  0
    6.0670   19.0940    1.9640 C   0  0  0  0  0  0  0  0  0  0  0  0
    4.2220   19.0400    3.7160 C   0  0  0  0  0  0  0  0  0  0  0  0
    0.9280   16.1620   -0.9930 C   0  0  1  0  0  0  0  0  0  0  0  0
    0.7900   16.4200   -2.5170 C   0  0  0  0  0  0  0  0  0  0  0  0
    1.0730   15.0710   -3.2260 C   0  0  0  0  0  0  0  0  0  0  0  0
    1.0350   14.0190   -2.0930 C   0  0  1  0  0  0  0  0  0  0  0  0
   -0.4810   13.7270   -1.8680 C   0  0  0  0  0  0  0  0  0  0  0  0
    1.8460   12.7050   -2.3420 C   0  0  2  0  0  0  0  0  0  0  0  0
    1.3670   11.8600   -3.5350 C   0  0  0  0  0  0  0  0  0  0  0  0
    0.3360   10.8300   -3.2140 C   0  0  0  0  0  0  0  0  0  0  0  0
    0.0200   10.3970   -1.9790 C   0  0  0  0  0  0  0  0  0  0  0  0
    0.7990   10.8850   -0.7510 C   0  0  1  0  0  0  0  0  0  0  0  0
    1.1580    9.6740    0.1490 C   0  0  0  0  0  0  0  0  0  0  0  0
   -0.0650    8.8420    0.5260 C   0  0  0  0  0  0  0  0  0  0  0  0
   -0.7790    8.3270   -0.7210 C   0  0  2  0  0  0  0  0  0  0  0  0
    0.0730    7.3880   -1.3860 O   0  0  0  0  0  0  0  0  0  0  0  0
   -1.1810    9.4580   -1.7080 C   0  0  0  0  0  0  0  0  0  0  0  0
   -2.3280   10.3000   -1.0960 C   0  0  0  0  0  0  0  0  0  0  0  0
   -1.7640    8.7930   -2.9850 C   0  0  0  0  0  0  0  0  0  0  0  0
    2.0520   11.8160   -1.0490 C   0  0  1  0  0  0  0  0  0  0  0  0
    3.3160   10.9400   -1.3080 C   0  0  0  0  0  0  0  0  0  0  0  0
    2.3650   12.6810    0.2280 C   0  0  0  0  0  0  0  0  0  0  0  0
    1.6220   14.0240    0.3580 C   0  0  0  0  0  0  0  0  0  0  0  0
    1.7240   14.8340   -0.9380 C   0  0  2  0  0  0  0  0  0  0  0  0
    3.2370   15.1630   -1.1790 C   0  0  0  0  0  0  0  0  0  0  0  0
    0.2664   18.5700    1.0450 H   0  0  0  0  0  0  0  0  0  0  0  0
    0.7393   19.3636   -0.4955 H   0  0  0  0  0  0  0  0  0  0  0  0
   -0.5159   18.0787   -0.4955 H   0  0  0  0  0  0  0  0  0  0  0  0
    1.8598   17.0394    0.7466 H   0  0  0  0  0  0  0  0  0  0  0  0
    2.9854   17.2107   -1.8128 H   0  0  0  0  0  0  0  0  0  0  0  0
    2.4328   18.9039   -1.4000 H   0  0  0  0  0  0  0  0  0  0  0  0
    4.5056   17.1775   -0.0474 H   0  0  0  0  0  0  0  0  0  0  0  0
    4.5862   18.9025   -0.5997 H   0  0  0  0  0  0  0  0  0  0  0  0
    2.7692   17.8655    1.2973 H   0  0  0  0  0  0  0  0  0  0  0  0
    6.6372   19.1037    2.9046 H   0  0  0  0  0  0  0  0  0  0  0  0
    6.3356   18.2003    1.3816 H   0  0  0  0  0  0  0  0  0  0  0  0
    6.3049   19.9963    1.3816 H   0  0  0  0  0  0  0  0  0  0  0  0
    5.1289   19.1092    4.3347 H   0  0  0  0  0  0  0  0  0  0  0  0
    3.5605   19.8903    3.9385 H   0  0  0  0  0  0  0  0  0  0  0  0
    3.6972   18.0992    3.9385 H   0  0  0  0  0  0  0  0  0  0  0  0
   -0.0242   16.0518   -0.4534 H   0  0  0  0  0  0  0  0  0  0  0  0
   -0.2275   16.7654   -2.7522 H   0  0  0  0  0  0  0  0  0  0  0  0
    1.4930   17.1972   -2.8514 H   0  0  0  0  0  0  0  0  0  0  0  0
    0.3000   14.8586   -3.9792 H   0  0  0  0  0  0  0  0  0  0  0  0
    2.0347   15.0742   -3.7600 H   0  0  0  0  0  0  0  0  0  0  0  0
   -0.6904   13.6867   -0.7889 H   0  0  0  0  0  0  0  0  0  0  0  0
   -1.0806   14.5262   -2.3282 H   0  0  0  0  0  0  0  0  0  0  0  0
   -0.7408   12.7623   -2.3282 H   0  0  0  0  0  0  0  0  0  0  0  0
    2.8370   13.0886   -2.6263 H   0  0  0  0  0  0  0  0  0  0  0  0
    0.9431   12.5425   -4.2864 H   0  0  0  0  0  0  0  0  0  0  0  0
    2.2492   11.3070   -3.8897 H   0  0  0  0  0  0  0  0  0  0  0  0
   -0.2125   10.3868   -4.0583 H   0  0  0  0  0  0  0  0  0  0  0  0
    0.1218   11.5636   -0.2117 H   0  0  0  0  0  0  0  0  0  0  0  0
    1.8687    9.0314   -0.3914 H   0  0  0  0  0  0  0  0  0  0  0  0
    1.5941   10.0670    1.0792 H   0  0  0  0  0  0  0  0  0  0  0  0
    0.2565    7.9853    1.1365 H   0  0  0  0  0  0  0  0  0  0  0  0
   -0.7615    9.4777    1.0924 H   0  0  0  0  0  0  0  0  0  0  0  0
   -1.7145    7.8508   -0.3922 H   0  0  0  0  0  0  0  0  0  0  0  0
    0.7220    7.8950   -1.9030 H   0  0  0  0  0  0  0  0  0  0  0  0
   -2.2692   10.2568    0.0016 H   0  0  0  0  0  0  0  0  0  0  0  0
   -2.2332   11.3446   -1.4275 H   0  0  0  0  0  0  0  0  0  0  0  0
   -3.2962    9.8966   -1.4275 H   0  0  0  0  0  0  0  0  0  0  0  0
   -2.4637    7.9949   -2.6960 H   0  0  0  0  0  0  0  0  0  0  0  0
   -2.2959    9.5487   -3.5817 H   0  0  0  0  0  0  0  0  0  0  0  0
   -0.9452    8.3645   -3.5817 H   0  0  0  0  0  0  0  0  0  0  0  0
    3.7547   10.6359   -0.3462 H   0  0  0  0  0  0  0  0  0  0  0  0
    3.0308   10.0449   -1.8802 H   0  0  0  0  0  0  0  0  0  0  0  0
    4.0540   11.5213   -1.8802 H   0  0  0  0  0  0  0  0  0  0  0  0
    2.1127   12.0746    1.1104 H   0  0  0  0  0  0  0  0  0  0  0  0
    3.4284   12.9484    0.1402 H   0  0  0  0  0  0  0  0  0  0  0  0
    0.5620   13.8291    0.5782 H   0  0  0  0  0  0  0  0  0  0  0  0
    2.0837   14.6033    1.1712 H   0  0  0  0  0  0  0  0  0  0  0  0
    3.7469   15.2739   -0.2106 H   0  0  0  0  0  0  0  0  0  0  0  0
    3.7039   14.3454   -1.7478 H   0  0  0  0  0  0  0  0  0  0  0  0
    3.3223   16.1007   -1.7478 H   0  0  0  0  0  0  0  0  0  0  0  0
  1  2  1  0
  2  3  1  0
  3  4  1  0
  4  5  1  0
  5  6  1  0
  6  7  1  0
  7  8  1  0
  7  9  1  0
  2 10  1  0
 10 11  1  0
 11 12  1  0
 12 13  1  0
 13 14  1  1
 13 15  1  0
 15 16  1  0
 16 17  1  0
 17 18  2  0
 18 19  1  0
 19 20  1  0
 20 21  1  0
 21 22  1  0
 22 23  1  0
 22 24  1  0
 24 25  1  0
 24 26  1  0
 19 27  1  0
 27 28  1  6
 27 29  1  0
 29 30  1  0
 30 31  1  0
 31 32  1  6
  7  5  1  0
 31 10  1  0
 31 13  1  0
 27 15  1  0
 24 18  1  0
  1 33  1  0
  1 34  1  0
  1 35  1  0
  2 36  1  1
  3 37  1  0
  3 38  1  0
  4 39  1  0
  4 40  1  0
  5 41  1  1
  8 42  1  0
  8 43  1  0
  8 44  1  0
  9 45  1  0
  9 46  1  0
  9 47  1  0
 10 48  1  1
 11 49  1  0
 11 50  1  0
 12 51  1  0
 12 52  1  0
 14 53  1  0
 14 54  1  0
 14 55  1  0
 15 56  1  6
 16 57  1  0
 16 58  1  0
 17 59  1  0
 19 60  1  1
 20 61  1  0
 20 62  1  0
 21 63  1  0
 21 64  1  0
 22 65  1  1
 23 66  1  0
 25 67  1  0
 25 68  1  0
 25 69  1  0
 26 70  1  0
 26 71  1  0
 26 72  1  0
 28 73  1  0
 28 74  1  0
 28 75  1  0
 29 76  1  0
 29 77  1  0
 30 78  1  0
 30 79  1  0
 32 80  1  0
 32 81  1  0
 32 82  1  0
M  END
>  <meeko>  (4) 
{"is_sidechain": [false], "intermolecular_energy": 2.731, "internal_energy": -0.839}

$$$$
EPH_relaxed_0001_pdb2pqr_Repair_20_r2_0001_out
     RDKit          3D

 82 86  0  0  0  0  0  0  0  0999 V2000
   -3.4050    9.3130    0.5360 C   0  0  0  0  0  0  0  0  0  0  0  0
   -2.5770    9.6780   -0.7000 C   0  0  2  0  0  0  0  0  0  0  0  0
   -1.9070    8.4430   -1.3340 C   0  0  0  0  0  0  0  0  0  0  0  0
   -2.8200    7.6690   -2.2890 C   0  0  0  0  0  0  0  0  0  0  0  0
   -4.2590    7.7660   -1.8810 C   0  0  2  0  0  0  0  0  0  0  0  0
   -4.8010    6.5680   -1.3090 O   0  0  0  0  0  0  0  0  0  0  0  0
   -5.3740    6.9910   -2.5570 C   0  0  0  0  0  0  0  0  0  0  0  0
   -5.0990    6.0640   -3.6990 C   0  0  0  0  0  0  0  0  0  0  0  0
   -6.7760    7.5020   -2.4340 C   0  0  0  0  0  0  0  0  0  0  0  0
   -1.5200   10.7120   -0.3300 C   0  0  1  0  0  0  0  0  0  0  0  0
   -0.4220   10.1360    0.6040 C   0  0  0  0  0  0  0  0  0  0  0  0
    0.9070   10.8300    0.2120 C   0  0  0  0  0  0  0  0  0  0  0  0
    0.4800   12.0090   -0.6940 C   0  0  1  0  0  0  0  0  0  0  0  0
    0.0380   13.1340    0.2940 C   0  0  0  0  0  0  0  0  0  0  0  0
    1.5500   12.5220   -1.7120 C   0  0  2  0  0  0  0  0  0  0  0  0
    2.8300   13.0950   -1.0790 C   0  0  0  0  0  0  0  0  0  0  0  0
    2.8020   14.5610   -0.7980 C   0  0  0  0  0  0  0  0  0  0  0  0
    1.9100   15.4360   -1.2990 C   0  0  0  0  0  0  0  0  0  0  0  0
    0.8580   14.9900   -2.3220 C   0  0  1  0  0  0  0  0  0  0  0  0
    0.8070   16.0080   -3.4910 C   0  0  0  0  0  0  0  0  0  0  0  0
    0.5840   17.4390   -3.0120 C   0  0  0  0  0  0  0  0  0  0  0  0
    1.6830   17.8670   -2.0420 C   0  0  2  0  0  0  0  0  0  0  0  0
    2.9220   17.9410   -2.7530 O   0  0  0  0  0  0  0  0  0  0  0  0
    1.8340   16.9090   -0.8270 C   0  0  0  0  0  0  0  0  0  0  0  0
    0.6080   17.0570    0.1080 C   0  0  0  0  0  0  0  0  0  0  0  0
    3.0660   17.3730   -0.0040 C   0  0  0  0  0  0  0  0  0  0  0  0
    0.9740   13.4870   -2.8260 C   0  0  1  0  0  0  0  0  0  0  0  0
    1.9560   13.4060   -4.0350 C   0  0  0  0  0  0  0  0  0  0  0  0
   -0.4290   13.0140   -3.3610 C   0  0  0  0  0  0  0  0  0  0  0  0
   -1.3970   12.4060   -2.3280 C   0  0  0  0  0  0  0  0  0  0  0  0
   -0.6980   11.3330   -1.4860 C   0  0  2  0  0  0  0  0  0  0  0  0
   -0.2620   10.1780   -2.4500 C   0  0  0  0  0  0  0  0  0  0  0  0
   -2.8375    9.5632    1.4445 H   0  0  0  0  0  0  0  0  0  0  0  0
   -4.3483    9.8787    0.5255 H   0  0  0  0  0  0  0  0  0  0  0  0
   -3.6238    8.2350    0.5255 H   0  0  0  0  0  0  0  0  0  0  0  0
   -3.2648   10.1007   -1.4472 H   0  0  0  0  0  0  0  0  0  0  0  0
   -1.0219    8.7778   -1.8948 H   0  0  0  0  0  0  0  0  0  0  0  0
   -1.6493    7.7596   -0.5115 H   0  0  0  0  0  0  0  0  0  0  0  0
   -2.7082    8.0822   -3.3023 H   0  0  0  0  0  0  0  0  0  0  0  0
   -2.5263    6.6093   -2.2607 H   0  0  0  0  0  0  0  0  0  0  0  0
   -4.1433    8.8330   -1.6398 H   0  0  0  0  0  0  0  0  0  0  0  0
   -4.8065    5.0780   -3.3087 H   0  0  0  0  0  0  0  0  0  0  0  0
   -6.0052    5.9608   -4.3139 H   0  0  0  0  0  0  0  0  0  0  0  0
   -4.2831    6.4717   -4.3139 H   0  0  0  0  0  0  0  0  0  0  0  0
   -7.0393    7.5980   -1.3703 H   0  0  0  0  0  0  0  0  0  0  0  0
   -6.8518    8.4856   -2.9207 H   0  0  0  0  0  0  0  0  0  0  0  0
   -7.4669    6.7979   -2.9207 H   0  0  0  0  0  0  0  0  0  0  0  0
   -2.1634   11.4778    0.1278 H   0  0  0  0  0  0  0  0  0  0  0  0
   -0.6667   10.3519    1.6545 H   0  0  0  0  0  0  0  0  0  0  0  0
   -0.3444    9.0441    0.4961 H   0  0  0  0  0  0  0  0  0  0  0  0
    1.4314   11.1978    1.1063 H   0  0  0  0  0  0  0  0  0  0  0  0
    1.6014   10.1444   -0.2957 H   0  0  0  0  0  0  0  0  0  0  0  0
    0.1742   12.7873    1.3290 H   0  0  0  0  0  0  0  0  0  0  0  0
    0.6501   14.0321    0.1246 H   0  0  0  0  0  0  0  0  0  0  0  0
   -1.0218   13.3752    0.1246 H   0  0  0  0  0  0  0  0  0  0  0  0
    1.8566   11.5956   -2.2198 H   0  0  0  0  0  0  0  0  0  0  0  0
    3.0032   12.5700   -0.1280 H   0  0  0  0  0  0  0  0  0  0  0  0
    3.6296   12.9424   -1.8188 H   0  0  0  0  0  0  0  0  0  0  0  0
    3.5753   14.9597   -0.1249 H   0  0  0  0  0  0  0  0  0  0  0  0
   -0.1033   14.9879   -1.7874 H   0  0  0  0  0  0  0  0  0  0  0  0
    1.7600   15.9640   -4.0385 H   0  0  0  0  0  0  0  0  0  0  0  0
   -0.0427   15.7352   -4.1341 H   0  0  0  0  0  0  0  0  0  0  0  0
    0.5874   18.1140   -3.8805 H   0  0  0  0  0  0  0  0  0  0  0  0
   -0.3833   17.4881   -2.4906 H   0  0  0  0  0  0  0  0  0  0  0  0
    1.3999   18.8487   -1.6344 H   0  0  0  0  0  0  0  0  0  0  0  0
    3.4420   18.6630   -2.3630 H   0  0  0  0  0  0  0  0  0  0  0  0
    0.9393   17.0170    1.1562 H   0  0  0  0  0  0  0  0  0  0  0  0
    0.1147   18.0212   -0.0841 H   0  0  0  0  0  0  0  0  0  0  0  0
   -0.1006   16.2379   -0.0841 H   0  0  0  0  0  0  0  0  0  0  0  0
    2.8425   17.2888    1.0698 H   0  0  0  0  0  0  0  0  0  0  0  0
    3.9308   16.7390   -0.2493 H   0  0  0  0  0  0  0  0  0  0  0  0
    3.2976   18.4200   -0.2493 H   0  0  0  0  0  0  0  0  0  0  0  0
    2.9881   13.3209   -3.6640 H   0  0  0  0  0  0  0  0  0  0  0  0
    1.7124   12.5249   -4.6468 H   0  0  0  0  0  0  0  0  0  0  0  0
    1.8601   14.3151   -4.6468 H   0  0  0  0  0  0  0  0  0  0  0  0
   -0.9259   13.8870   -3.8092 H   0  0  0  0  0  0  0  0  0  0  0  0
   -0.2086   12.1976   -4.0646 H   0  0  0  0  0  0  0  0  0  0  0  0
   -1.7618   13.2034   -1.6639 H   0  0  0  0  0  0  0  0  0  0  0  0
   -2.2353   11.9389   -2.8656 H   0  0  0  0  0  0  0  0  0  0  0  0
    0.0655    9.3105   -1.8582 H   0  0  0  0  0  0  0  0  0  0  0  0
   -1.1129    9.8890   -3.0844 H   0  0  0  0  0  0  0  0  0  0  0  0
    0.5676   10.5234   -3.0844 H   0  0  0  0  0  0  0  0  0  0  0  0
  1  2  1  0
  2  3  1  0
  3  4  1  0
  4  5  1  0
  5  6  1  0
  6  7  1  0
  7  8  1  0
  7  9  1  0
  2 10  1  0
 10 11  1  0
 11 12  1  0
 12 13  1  0
 13 14  1  1
 13 15  1  0
 15 16  1  0
 16 17  1  0
 17 18  2  0
 18 19  1  0
 19 20  1  0
 20 21  1  0
 21 22  1  0
 22 23  1  0
 22 24  1  0
 24 25  1  0
 24 26  1  0
 19 27  1  0
 27 28  1  6
 27 29  1  0
 29 30  1  0
 30 31  1  0
 31 32  1  6
  7  5  1  0
 31 10  1  0
 31 13  1  0
 27 15  1  0
 24 18  1  0
  1 33  1  0
  1 34  1  0
  1 35  1  0
  2 36  1  6
  3 37  1  0
  3 38  1  0
  4 39  1  0
  4 40  1  0
  5 41  1  1
  8 42  1  0
  8 43  1  0
  8 44  1  0
  9 45  1  0
  9 46  1  0
  9 47  1  0
 10 48  1  1
 11 49  1  0
 11 50  1  0
 12 51  1  0
 12 52  1  0
 14 53  1  0
 14 54  1  0
 14 55  1  0
 15 56  1  6
 16 57  1  0
 16 58  1  0
 17 59  1  0
 19 60  1  1
 20 61  1  0
 20 62  1  0
 21 63  1  0
 21 64  1  0
 22 65  1  1
 23 66  1  0
 25 67  1  0
 25 68  1  0
 25 69  1  0
 26 70  1  0
 26 71  1  0
 26 72  1  0
 28 73  1  0
 28 74  1  0
 28 75  1  0
 29 76  1  0
 29 77  1  0
 30 78  1  0
 30 79  1  0
 32 80  1  0
 32 81  1  0
 32 82  1  0
M  END
>  <meeko>  (5) 
{"is_sidechain": [false], "intermolecular_energy": 2.731, "internal_energy": -0.839}

$$$$
EPH_relaxed_0001_pdb2pqr_Repair_20_r2_0001_out
     RDKit          3D

 82 86  0  0  0  0  0  0  0  0999 V2000
    3.7330   17.6330    0.5310 C   0  0  0  0  0  0  0  0  0  0  0  0
    2.7920   17.9350   -0.6380 C   0  0  2  0  0  0  0  0  0  0  0  0
    2.1290   19.3210   -0.5070 C   0  0  0  0  0  0  0  0  0  0  0  0
    1.2780   19.4800    0.7560 C   0  0  0  0  0  0  0  0  0  0  0  0
   -0.0490   20.1070    0.4540 C   0  0  2  0  0  0  0  0  0  0  0  0
   -0.9430   20.1840    1.5730 O   0  0  0  0  0  0  0  0  0  0  0  0
   -1.3610   19.3450    0.4840 C   0  0  0  0  0  0  0  0  0  0  0  0
   -1.4090   17.8880    0.8230 C   0  0  0  0  0  0  0  0  0  0  0  0
   -2.5230   19.8900   -0.2850 C   0  0  0  0  0  0  0  0  0  0  0  0
    1.7220   16.8540   -0.7370 C   0  0  1  0  0  0  0  0  0  0  0  0
    0.4630   17.3280   -1.5110 C   0  0  0  0  0  0  0  0  0  0  0  0
   -0.0720   16.0990   -2.2910 C   0  0  0  0  0  0  0  0  0  0  0  0
    0.6870   14.8940   -1.6870 C   0  0  1  0  0  0  0  0  0  0  0  0
   -0.0820   14.5530   -0.3730 C   0  0  0  0  0  0  0  0  0  0  0  0
    0.8370   13.6410   -2.6100 C   0  0  2  0  0  0  0  0  0  0  0  0
   -0.4850   12.9710   -3.0220 C   0  0  0  0  0  0  0  0  0  0  0  0
   -0.9660   11.8930   -2.1080 C   0  0  0  0  0  0  0  0  0  0  0  0
   -0.2280   11.2820   -1.1630 C   0  0  0  0  0  0  0  0  0  0  0  0
    1.2650   11.5960   -1.0040 C   0  0  1  0  0  0  0  0  0  0  0  0
    2.0620   10.2720   -0.8720 C   0  0  0  0  0  0  0  0  0  0  0  0
    1.5320    9.3790    0.2460 C   0  0  0  0  0  0  0  0  0  0  0  0
    0.0600    9.0410    0.0220 C   0  0  2  0  0  0  0  0  0  0  0  0
   -0.0520    8.2200   -1.1440 O   0  0  0  0  0  0  0  0  0  0  0  0
   -0.8400   10.2980   -0.1360 C   0  0  0  0  0  0  0  0  0  0  0  0
   -0.9590   11.0280    1.2250 C   0  0  0  0  0  0  0  0  0  0  0  0
   -2.2720    9.8180   -0.4960 C   0  0  0  0  0  0  0  0  0  0  0  0
    1.8870   12.5760   -2.0900 C   0  0  1  0  0  0  0  0  0  0  0  0
    2.3510   11.7630   -3.3370 C   0  0  0  0  0  0  0  0  0  0  0  0
    3.1790   13.2510   -1.4940 C   0  0  0  0  0  0  0  0  0  0  0  0
    2.9770   14.5520   -0.6940 C   0  0  0  0  0  0  0  0  0  0  0  0
    2.1020   15.5420   -1.4690 C   0  0  2  0  0  0  0  0  0  0  0  0
    2.8610   15.9210   -2.7860 C   0  0  0  0  0  0  0  0  0  0  0  0
    3.2043   17.8027    1.4806 H   0  0  0  0  0  0  0  0  0  0  0  0
    4.0610   16.5845    0.4762 H   0  0  0  0  0  0  0  0  0  0  0  0
    4.6099   18.2948    0.4762 H   0  0  0  0  0  0  0  0  0  0  0  0
    3.3979   17.9440   -1.5560 H   0  0  0  0  0  0  0  0  0  0  0  0
    2.9208   20.0844   -0.4905 H   0  0  0  0  0  0  0  0  0  0  0  0
    1.4525   19.4360   -1.3667 H   0  0  0  0  0  0  0  0  0  0  0  0
    1.1107   18.4878    1.2005 H   0  0  0  0  0  0  0  0  0  0  0  0
    1.8178   20.1379    1.4530 H   0  0  0  0  0  0  0  0  0  0  0  0
    0.4063   20.7624   -0.3031 H   0  0  0  0  0  0  0  0  0  0  0  0
   -1.4130   17.7658    1.9162 H   0  0  0  0  0  0  0  0  0  0  0  0
   -2.3223   17.4432    0.4010 H   0  0  0  0  0  0  0  0  0  0  0  0
   -0.5270   17.3841    0.4010 H   0  0  0  0  0  0  0  0  0  0  0  0
   -3.2903   20.2499    0.4162 H   0  0  0  0  0  0  0  0  0  0  0  0
   -2.1851   20.7235   -0.9183 H   0  0  0  0  0  0  0  0  0  0  0  0
   -2.9479   19.0972   -0.9183 H   0  0  0  0  0  0  0  0  0  0  0  0
    1.5614   16.6556    0.3330 H   0  0  0  0  0  0  0  0  0  0  0  0
   -0.3001   17.6912   -0.8069 H   0  0  0  0  0  0  0  0  0  0  0  0
    0.7077   18.1539   -2.1951 H   0  0  0  0  0  0  0  0  0  0  0  0
   -1.1565   15.9880   -2.1446 H   0  0  0  0  0  0  0  0  0  0  0  0
    0.0868   16.1914   -3.3755 H   0  0  0  0  0  0  0  0  0  0  0  0
    0.5357   14.8269    0.4950 H   0  0  0  0  0  0  0  0  0  0  0  0
   -1.0260   15.1169   -0.3438 H   0  0  0  0  0  0  0  0  0  0  0  0
   -0.2979   13.4748   -0.3438 H   0  0  0  0  0  0  0  0  0  0  0  0
    1.2509   14.0754   -3.5319 H   0  0  0  0  0  0  0  0  0  0  0  0
   -1.2609   13.7495   -3.0672 H   0  0  0  0  0  0  0  0  0  0  0  0
   -0.2911   12.4852   -3.9897 H   0  0  0  0  0  0  0  0  0  0  0  0
   -2.0122   11.5709   -2.2162 H   0  0  0  0  0  0  0  0  0  0  0  0
    1.3551   12.1801   -0.0763 H   0  0  0  0  0  0  0  0  0  0  0  0
    1.9947    9.7236   -1.8232 H   0  0  0  0  0  0  0  0  0  0  0  0
    3.1025   10.5316   -0.6271 H   0  0  0  0  0  0  0  0  0  0  0  0
    2.1159    8.4471    0.2699 H   0  0  0  0  0  0  0  0  0  0  0  0
    1.6277    9.9170    1.2007 H   0  0  0  0  0  0  0  0  0  0  0  0
   -0.2965    8.5105    0.9173 H   0  0  0  0  0  0  0  0  0  0  0  0
   -0.8920    7.7340   -1.0830 H   0  0  0  0  0  0  0  0  0  0  0  0
   -0.8406   10.3014    2.0424 H   0  0  0  0  0  0  0  0  0  0  0  0
   -0.1740   11.7950    1.2996 H   0  0  0  0  0  0  0  0  0  0  0  0
   -1.9469   11.5060    1.2996 H   0  0  0  0  0  0  0  0  0  0  0  0
   -2.8382    9.6282    0.4278 H   0  0  0  0  0  0  0  0  0  0  0  0
   -2.7816   10.5944   -1.0854 H   0  0  0  0  0  0  0  0  0  0  0  0
   -2.2107    8.8913   -1.0854 H   0  0  0  0  0  0  0  0  0  0  0  0
    2.8712   10.8515   -3.0076 H   0  0  0  0  0  0  0  0  0  0  0  0
    1.4745   11.4868   -3.9415 H   0  0  0  0  0  0  0  0  0  0  0  0
    3.0346   12.3772   -3.9415 H   0  0  0  0  0  0  0  0  0  0  0  0
    3.6580   12.5204   -0.8257 H   0  0  0  0  0  0  0  0  0  0  0  0
    3.7813   13.5409   -2.3676 H   0  0  0  0  0  0  0  0  0  0  0  0
    2.4899   14.3139    0.2631 H   0  0  0  0  0  0  0  0  0  0  0  0
    3.9603   15.0137   -0.5212 H   0  0  0  0  0  0  0  0  0  0  0  0
    3.8187   16.3992   -2.5326 H   0  0  0  0  0  0  0  0  0  0  0  0
    3.0499   15.0114   -3.3751 H   0  0  0  0  0  0  0  0  0  0  0  0
    2.2474   16.6185   -3.3751 H   0  0  0  0  0  0  0  0  0  0  0  0
  1  2  1  0
  2  3  1  0
  3  4  1  0
  4  5  1  0
  5  6  1  0
  6  7  1  0
  7  8  1  0
  7  9  1  0
  2 10  1  0
 10 11  1  0
 11 12  1  0
 12 13  1  0
 13 14  1  1
 13 15  1  0
 15 16  1  0
 16 17  1  0
 17 18  2  0
 18 19  1  0
 19 20  1  0
 20 21  1  0
 21 22  1  0
 22 23  1  0
 22 24  1  0
 24 25  1  0
 24 26  1  0
 19 27  1  0
 27 28  1  6
 27 29  1  0
 29 30  1  0
 30 31  1  0
 31 32  1  6
  7  5  1  0
 31 10  1  0
 31 13  1  0
 27 15  1  0
 24 18  1  0
  1 33  1  0
  1 34  1  0
  1 35  1  0
  2 36  1  6
  3 37  1  0
  3 38  1  0
  4 39  1  0
  4 40  1  0
  5 41  1  6
  8 42  1  0
  8 43  1  0
  8 44  1  0
  9 45  1  0
  9 46  1  0
  9 47  1  0
 10 48  1  1
 11 49  1  0
 11 50  1  0
 12 51  1  0
 12 52  1  0
 14 53  1  0
 14 54  1  0
 14 55  1  0
 15 56  1  6
 16 57  1  0
 16 58  1  0
 17 59  1  0
 19 60  1  1
 20 61  1  0
 20 62  1  0
 21 63  1  0
 21 64  1  0
 22 65  1  1
 23 66  1  0
 25 67  1  0
 25 68  1  0
 25 69  1  0
 26 70  1  0
 26 71  1  0
 26 72  1  0
 28 73  1  0
 28 74  1  0
 28 75  1  0
 29 76  1  0
 29 77  1  0
 30 78  1  0
 30 79  1  0
 32 80  1  0
 32 81  1  0
 32 82  1  0
M  END
>  <meeko>  (6) 
{"is_sidechain": [false], "intermolecular_energy": 2.731, "internal_energy": -0.839}

$$$$
EPH_relaxed_0001_pdb2pqr_Repair_20_r2_0001_out
     RDKit          3D

 82 86  0  0  0  0  0  0  0  0999 V2000
   -5.1690    5.8400   -1.5540 C   0  0  0  0  0  0  0  0  0  0  0  0
   -5.4280    7.3420   -1.6950 C   0  0  2  0  0  0  0  0  0  0  0  0
   -5.1960    8.0980   -0.3710 C   0  0  0  0  0  0  0  0  0  0  0  0
   -4.1400    9.2020   -0.4690 C   0  0  0  0  0  0  0  0  0  0  0  0
   -2.7910    8.6490   -0.8200 C   0  0  2  0  0  0  0  0  0  0  0  0
   -1.7630    8.9280    0.1390 O   0  0  0  0  0  0  0  0  0  0  0  0
   -1.5940    9.5170   -1.1610 C   0  0  0  0  0  0  0  0  0  0  0  0
   -1.6900   11.0110   -1.1680 C   0  0  0  0  0  0  0  0  0  0  0  0
   -0.4780    8.9160   -1.9550 C   0  0  0  0  0  0  0  0  0  0  0  0
   -6.8510    7.5810   -2.1880 C   0  0  1  0  0  0  0  0  0  0  0  0
   -7.1320    6.8980   -3.5530 C   0  0  0  0  0  0  0  0  0  0  0  0
   -8.6110    6.4330   -3.5240 C   0  0  0  0  0  0  0  0  0  0  0  0
   -9.2200    7.1480   -2.2950 C   0  0  1  0  0  0  0  0  0  0  0  0
   -9.5520    8.5890   -2.7940 C   0  0  0  0  0  0  0  0  0  0  0  0
  -10.4650    6.4610   -1.6440 C   0  0  2  0  0  0  0  0  0  0  0  0
  -11.7000    6.3500   -2.5550 C   0  0  0  0  0  0  0  0  0  0  0  0
  -12.6490    7.5000   -2.4860 C   0  0  0  0  0  0  0  0  0  0  0  0
  -12.6690    8.4420   -1.5240 C   0  0  0  0  0  0  0  0  0  0  0  0
  -11.7310    8.3500   -0.3130 C   0  0  1  0  0  0  0  0  0  0  0  0
  -12.5340    8.6230    0.9860 C   0  0  0  0  0  0  0  0  0  0  0  0
  -13.2950    9.9440    0.9360 C   0  0  0  0  0  0  0  0  0  0  0  0
  -14.2590    9.9740   -0.2470 C   0  0  2  0  0  0  0  0  0  0  0  0
  -15.2870    9.0040   -0.0280 O   0  0  0  0  0  0  0  0  0  0  0  0
  -13.5640    9.7020   -1.6100 C   0  0  0  0  0  0  0  0  0  0  0  0
  -12.6700   10.9090   -1.9890 C   0  0  0  0  0  0  0  0  0  0  0  0
  -14.6670    9.6200   -2.7000 C   0  0  0  0  0  0  0  0  0  0  0  0
  -10.8480    7.0320   -0.2180 C   0  0  1  0  0  0  0  0  0  0  0  0
  -11.6450    5.9080    0.5120 C   0  0  0  0  0  0  0  0  0  0  0  0
   -9.5800    7.3250    0.6690 C   0  0  0  0  0  0  0  0  0  0  0  0
   -8.3420    7.8900   -0.0530 C   0  0  0  0  0  0  0  0  0  0  0  0
   -8.0080    7.0620   -1.2980 C   0  0  2  0  0  0  0  0  0  0  0  0
   -7.6480    5.6120   -0.8260 C   0  0  0  0  0  0  0  0  0  0  0  0
   -5.1232    5.5743   -0.4875 H   0  0  0  0  0  0  0  0  0  0  0  0
   -5.9839    5.2805   -2.0366 H   0  0  0  0  0  0  0  0  0  0  0  0
   -4.2138    5.5857   -2.0366 H   0  0  0  0  0  0  0  0  0  0  0  0
   -4.7092    7.7336   -2.4299 H   0  0  0  0  0  0  0  0  0  0  0  0
   -6.1475    8.5543   -0.0604 H   0  0  0  0  0  0  0  0  0  0  0  0
   -4.8251    7.3626    0.3581 H   0  0  0  0  0  0  0  0  0  0  0  0
   -4.4446    9.9188   -1.2457 H   0  0  0  0  0  0  0  0  0  0  0  0
   -4.0648    9.6929    0.5125 H   0  0  0  0  0  0  0  0  0  0  0  0
   -3.2495    7.7907   -1.3329 H   0  0  0  0  0  0  0  0  0  0  0  0
   -1.7138   11.3817   -0.1326 H   0  0  0  0  0  0  0  0  0  0  0  0
   -0.8171   11.4321   -1.6883 H   0  0  0  0  0  0  0  0  0  0  0  0
   -2.6097   11.3169   -1.6883 H   0  0  0  0  0  0  0  0  0  0  0  0
    0.2803    8.5076   -1.2708 H   0  0  0  0  0  0  0  0  0  0  0  0
   -0.8726    8.1084   -2.5891 H   0  0  0  0  0  0  0  0  0  0  0  0
   -0.0209    9.6900   -2.5891 H   0  0  0  0  0  0  0  0  0  0  0  0
   -6.8573    8.6808   -2.2096 H   0  0  0  0  0  0  0  0  0  0  0  0
   -6.9758    7.6134   -4.3739 H   0  0  0  0  0  0  0  0  0  0  0  0
   -6.4536    6.0477   -3.7165 H   0  0  0  0  0  0  0  0  0  0  0  0
   -9.1309    6.7338   -4.4455 H   0  0  0  0  0  0  0  0  0  0  0  0
   -8.7034    5.3388   -3.4586 H   0  0  0  0  0  0  0  0  0  0  0  0
   -9.7044    9.2507   -1.9286 H   0  0  0  0  0  0  0  0  0  0  0  0
   -8.7176    8.9676   -3.4026 H   0  0  0  0  0  0  0  0  0  0  0  0
  -10.4680    8.5643   -3.4026 H   0  0  0  0  0  0  0  0  0  0  0  0
  -10.1130    5.4300   -1.4916 H   0  0  0  0  0  0  0  0  0  0  0  0
  -11.3491    6.2608   -3.5937 H   0  0  0  0  0  0  0  0  0  0  0  0
  -12.2603    5.4717   -2.2021 H   0  0  0  0  0  0  0  0  0  0  0  0
  -13.3956    7.5852   -3.2894 H   0  0  0  0  0  0  0  0  0  0  0  0
  -10.9732    9.1344   -0.4557 H   0  0  0  0  0  0  0  0  0  0  0  0
  -13.2554    7.8057    1.1330 H   0  0  0  0  0  0  0  0  0  0  0  0
  -11.8154    8.6827    1.8167 H   0  0  0  0  0  0  0  0  0  0  0  0
  -13.8656   10.0662    1.8685 H   0  0  0  0  0  0  0  0  0  0  0  0
  -12.5697   10.7627    0.8186 H   0  0  0  0  0  0  0  0  0  0  0  0
  -14.6779   10.9894   -0.3064 H   0  0  0  0  0  0  0  0  0  0  0  0
  -15.0020    8.4330    0.7050 H   0  0  0  0  0  0  0  0  0  0  0  0
  -12.3074   11.3986   -1.0731 H   0  0  0  0  0  0  0  0  0  0  0  0
  -11.8122   10.5582   -2.5815 H   0  0  0  0  0  0  0  0  0  0  0  0
  -13.2556   11.6273   -2.5815 H   0  0  0  0  0  0  0  0  0  0  0  0
  -15.6534    9.5467   -2.2187 H   0  0  0  0  0  0  0  0  0  0  0  0
  -14.6311   10.5233   -3.3267 H   0  0  0  0  0  0  0  0  0  0  0  0
  -14.4979    8.7319   -3.3267 H   0  0  0  0  0  0  0  0  0  0  0  0
  -11.5516    6.0398    1.6001 H   0  0  0  0  0  0  0  0  0  0  0  0
  -12.7055    5.9652    0.2254 H   0  0  0  0  0  0  0  0  0  0  0  0
  -11.2402    4.9262    0.2254 H   0  0  0  0  0  0  0  0  0  0  0  0
   -9.8748    8.0507    1.4413 H   0  0  0  0  0  0  0  0  0  0  0  0
   -9.2654    6.3438    1.0540 H   0  0  0  0  0  0  0  0  0  0  0  0
   -8.5441    8.9283   -0.3549 H   0  0  0  0  0  0  0  0  0  0  0  0
   -7.4852    7.8492    0.6357 H   0  0  0  0  0  0  0  0  0  0  0  0
   -7.6390    5.5759    0.2734 H   0  0  0  0  0  0  0  0  0  0  0  0
   -8.3978    4.9046   -1.2100 H   0  0  0  0  0  0  0  0  0  0  0  0
   -6.6544    5.3375   -1.2100 H   0  0  0  0  0  0  0  0  0  0  0  0
  1  2  1  0
  2  3  1  0
  3  4  1  0
  4  5  1  0
  5  6  1  0
  6  7  1  0
  7  8  1  0
  7  9  1  0
  2 10  1  0
 10 11  1  0
 11 12  1  0
 12 13  1  0
 13 14  1  6
 13 15  1  0
 15 16  1  0
 16 17  1  0
 17 18  2  0
 18 19  1  0
 19 20  1  0
 20 21  1  0
 21 22  1  0
 22 23  1  0
 22 24  1  0
 24 25  1  0
 24 26  1  0
 19 27  1  0
 27 28  1  1
 27 29  1  0
 29 30  1  0
 30 31  1  0
 31 32  1  1
  7  5  1  0
 31 10  1  0
 31 13  1  0
 27 15  1  0
 24 18  1  0
  1 33  1  0
  1 34  1  0
  1 35  1  0
  2 36  1  6
  3 37  1  0
  3 38  1  0
  4 39  1  0
  4 40  1  0
  5 41  1  6
  8 42  1  0
  8 43  1  0
  8 44  1  0
  9 45  1  0
  9 46  1  0
  9 47  1  0
 10 48  1  6
 11 49  1  0
 11 50  1  0
 12 51  1  0
 12 52  1  0
 14 53  1  0
 14 54  1  0
 14 55  1  0
 15 56  1  1
 16 57  1  0
 16 58  1  0
 17 59  1  0
 19 60  1  6
 20 61  1  0
 20 62  1  0
 21 63  1  0
 21 64  1  0
 22 65  1  6
 23 66  1  0
 25 67  1  0
 25 68  1  0
 25 69  1  0
 26 70  1  0
 26 71  1  0
 26 72  1  0
 28 73  1  0
 28 74  1  0
 28 75  1  0
 29 76  1  0
 29 77  1  0
 30 78  1  0
 30 79  1  0
 32 80  1  0
 32 81  1  0
 32 82  1  0
M  END
>  <meeko>  (7) 
{"is_sidechain": [false], "intermolecular_energy": 2.731, "internal_energy": -0.839}

$$$$
EPH_relaxed_0001_pdb2pqr_Repair_20_r2_0001_out
     RDKit          3D

 82 86  0  0  0  0  0  0  0  0999 V2000
    0.4590    8.8010   -2.3560 C   0  0  0  0  0  0  0  0  0  0  0  0
    1.1960    9.9440   -3.0600 C   0  0  2  0  0  0  0  0  0  0  0  0
    2.6980    9.9680   -2.7100 C   0  0  0  0  0  0  0  0  0  0  0  0
    3.5730   10.5920   -3.8000 C   0  0  0  0  0  0  0  0  0  0  0  0
    4.9710   10.8350   -3.3170 C   0  0  2  0  0  0  0  0  0  0  0  0
    5.5700   12.0450   -3.8010 O   0  0  0  0  0  0  0  0  0  0  0  0
    6.1850   10.8180   -4.2270 C   0  0  0  0  0  0  0  0  0  0  0  0
    6.0580   10.5510   -5.6940 C   0  0  0  0  0  0  0  0  0  0  0  0
    7.5310   10.5760   -3.6190 C   0  0  0  0  0  0  0  0  0  0  0  0
    0.5550   11.2780   -2.6970 C   0  0  1  0  0  0  0  0  0  0  0  0
   -0.8240   11.1090   -2.0040 C   0  0  0  0  0  0  0  0  0  0  0  0
   -0.9430   12.2510   -0.9620 C   0  0  0  0  0  0  0  0  0  0  0  0
    0.2070   13.2230   -1.3160 C   0  0  1  0  0  0  0  0  0  0  0  0
   -0.3410   14.0780   -2.5020 C   0  0  0  0  0  0  0  0  0  0  0  0
    0.7330   14.1230   -0.1510 C   0  0  2  0  0  0  0  0  0  0  0  0
   -0.3000   15.1000    0.4370 C   0  0  0  0  0  0  0  0  0  0  0  0
   -0.3430   16.4460   -0.2070 C   0  0  0  0  0  0  0  0  0  0  0  0
    0.6000   16.9540   -1.0220 C   0  0  0  0  0  0  0  0  0  0  0  0
    1.9030   16.1900   -1.2920 C   0  0  1  0  0  0  0  0  0  0  0  0
    3.1070   17.1590   -1.1610 C   0  0  0  0  0  0  0  0  0  0  0  0
    2.9630   18.3950   -2.0440 C   0  0  0  0  0  0  0  0  0  0  0  0
    1.6850   19.1590   -1.7060 C   0  0  2  0  0  0  0  0  0  0  0  0
    1.8070   19.7020   -0.3870 O   0  0  0  0  0  0  0  0  0  0  0  0
    0.4050   18.2830   -1.7940 C   0  0  0  0  0  0  0  0  0  0  0  0
    0.1060   17.9450   -3.2760 C   0  0  0  0  0  0  0  0  0  0  0  0
   -0.7930   19.1350   -1.2940 C   0  0  0  0  0  0  0  0  0  0  0  0
    2.1040   14.8500   -0.4620 C   0  0  1  0  0  0  0  0  0  0  0  0
    2.7610   15.1700    0.9150 C   0  0  0  0  0  0  0  0  0  0  0  0
    3.1150   13.9180   -1.2290 C   0  0  0  0  0  0  0  0  0  0  0  0
    2.5180   12.9660   -2.2840 C   0  0  0  0  0  0  0  0  0  0  0  0
    1.3260   12.1930   -1.7130 C   0  0  2  0  0  0  0  0  0  0  0  0
    1.8500   11.3070   -0.5320 C   0  0  0  0  0  0  0  0  0  0  0  0
    0.5409    8.9280   -1.2664 H   0  0  0  0  0  0  0  0  0  0  0  0
   -0.6015    8.8137   -2.6479 H   0  0  0  0  0  0  0  0  0  0  0  0
    0.9082    7.8403   -2.6479 H   0  0  0  0  0  0  0  0  0  0  0  0
    1.1118    9.7746   -4.1436 H   0  0  0  0  0  0  0  0  0  0  0  0
    2.8299   10.5476   -1.7844 H   0  0  0  0  0  0  0  0  0  0  0  0
    3.0194    8.9219   -2.5989 H   0  0  0  0  0  0  0  0  0  0  0  0
    3.6073    9.9108   -4.6630 H   0  0  0  0  0  0  0  0  0  0  0  0
    3.1335   11.5608   -4.0798 H   0  0  0  0  0  0  0  0  0  0  0  0
    4.7555   10.3282   -2.3648 H   0  0  0  0  0  0  0  0  0  0  0  0
    5.5902    9.5675   -5.8485 H   0  0  0  0  0  0  0  0  0  0  0  0
    5.4342   11.3304   -6.1559 H   0  0  0  0  0  0  0  0  0  0  0  0
    7.0563   10.5588   -6.1559 H   0  0  0  0  0  0  0  0  0  0  0  0
    7.4461   10.5913   -2.5224 H   0  0  0  0  0  0  0  0  0  0  0  0
    7.9092    9.5955   -3.9439 H   0  0  0  0  0  0  0  0  0  0  0  0
    8.2270   11.3634   -3.9439 H   0  0  0  0  0  0  0  0  0  0  0  0
    0.5194   11.7430   -3.6933 H   0  0  0  0  0  0  0  0  0  0  0  0
   -1.6328   11.1868   -2.7455 H   0  0  0  0  0  0  0  0  0  0  0  0
   -0.9059   10.1237   -1.5217 H   0  0  0  0  0  0  0  0  0  0  0  0
   -1.9173   12.7546   -1.0472 H   0  0  0  0  0  0  0  0  0  0  0  0
   -0.8738   11.8815    0.0718 H   0  0  0  0  0  0  0  0  0  0  0  0
   -0.8948   14.9420   -2.1060 H   0  0  0  0  0  0  0  0  0  0  0  0
    0.4990   14.4318   -3.1178 H   0  0  0  0  0  0  0  0  0  0  0  0
   -1.0133   13.4625   -3.1178 H   0  0  0  0  0  0  0  0  0  0  0  0
    0.9337   13.3878    0.6422 H   0  0  0  0  0  0  0  0  0  0  0  0
   -1.2956   14.6431    0.3365 H   0  0  0  0  0  0  0  0  0  0  0  0
    0.0027   15.2714    1.4805 H   0  0  0  0  0  0  0  0  0  0  0  0
   -1.2199   17.0763    0.0023 H   0  0  0  0  0  0  0  0  0  0  0  0
    1.8323   15.8210   -2.3259 H   0  0  0  0  0  0  0  0  0  0  0  0
    3.1869   17.4822   -0.1126 H   0  0  0  0  0  0  0  0  0  0  0  0
    4.0074   16.6184   -1.4882 H   0  0  0  0  0  0  0  0  0  0  0  0
    3.8294   19.0540   -1.8855 H   0  0  0  0  0  0  0  0  0  0  0  0
    2.9130   18.0730   -3.0946 H   0  0  0  0  0  0  0  0  0  0  0  0
    1.5705   19.9564   -2.4550 H   0  0  0  0  0  0  0  0  0  0  0  0
    1.3630   19.0910    0.2240 H   0  0  0  0  0  0  0  0  0  0  0  0
   -0.6221   17.1219   -3.3247 H   0  0  0  0  0  0  0  0  0  0  0  0
   -0.3088   18.8316   -3.7778 H   0  0  0  0  0  0  0  0  0  0  0  0
    1.0366   17.6415   -3.7778 H   0  0  0  0  0  0  0  0  0  0  0  0
   -0.8037   19.1426   -0.1941 H   0  0  0  0  0  0  0  0  0  0  0  0
   -0.6914   20.1649   -1.6669 H   0  0  0  0  0  0  0  0  0  0  0  0
   -1.7325   18.7010   -1.6669 H   0  0  0  0  0  0  0  0  0  0  0  0
    2.0919   14.8441    1.7250 H   0  0  0  0  0  0  0  0  0  0  0  0
    3.7206   14.6384    0.9958 H   0  0  0  0  0  0  0  0  0  0  0  0
    2.9340   16.2533    0.9958 H   0  0  0  0  0  0  0  0  0  0  0  0
    3.8434   14.5655   -1.7390 H   0  0  0  0  0  0  0  0  0  0  0  0
    3.5435   13.2612   -0.4577 H   0  0  0  0  0  0  0  0  0  0  0  0
    2.1833   13.5543   -3.1511 H   0  0  0  0  0  0  0  0  0  0  0  0
    3.2926   12.2447   -2.5837 H   0  0  0  0  0  0  0  0  0  0  0  0
    1.5747   11.7726    0.4258 H   0  0  0  0  0  0  0  0  0  0  0  0
    1.3986   10.3060   -0.5963 H   0  0  0  0  0  0  0  0  0  0  0  0
    2.9447   11.2204   -0.5963 H   0  0  0  0  0  0  0  0  0  0  0  0
  1  2  1  0
  2  3  1  0
  3  4  1  0
  4  5  1  0
  5  6  1  0
  6  7  1  0
  7  8  1  0
  7  9  1  0
  2 10  1  0
 10 11  1  0
 11 12  1  0
 12 13  1  0
 13 14  1  6
 13 15  1  0
 15 16  1  0
 16 17  1  0
 17 18  2  0
 18 19  1  0
 19 20  1  0
 20 21  1  0
 21 22  1  0
 22 23  1  0
 22 24  1  0
 24 25  1  0
 24 26  1  0
 19 27  1  0
 27 28  1  1
 27 29  1  0
 29 30  1  0
 30 31  1  0
 31 32  1  1
  7  5  1  0
 31 10  1  0
 31 13  1  0
 27 15  1  0
 24 18  1  0
  1 33  1  0
  1 34  1  0
  1 35  1  0
  2 36  1  6
  3 37  1  0
  3 38  1  0
  4 39  1  0
  4 40  1  0
  5 41  1  1
  8 42  1  0
  8 43  1  0
  8 44  1  0
  9 45  1  0
  9 46  1  0
  9 47  1  0
 10 48  1  6
 11 49  1  0
 11 50  1  0
 12 51  1  0
 12 52  1  0
 14 53  1  0
 14 54  1  0
 14 55  1  0
 15 56  1  1
 16 57  1  0
 16 58  1  0
 17 59  1  0
 19 60  1  6
 20 61  1  0
 20 62  1  0
 21 63  1  0
 21 64  1  0
 22 65  1  6
 23 66  1  0
 25 67  1  0
 25 68  1  0
 25 69  1  0
 26 70  1  0
 26 71  1  0
 26 72  1  0
 28 73  1  0
 28 74  1  0
 28 75  1  0
 29 76  1  0
 29 77  1  0
 30 78  1  0
 30 79  1  0
 32 80  1  0
 32 81  1  0
 32 82  1  0
M  END
>  <meeko>  (8) 
{"is_sidechain": [false], "intermolecular_energy": 2.731, "internal_energy": -0.839}

$$$$
EPH_relaxed_0001_pdb2pqr_Repair_20_r2_0001_out
     RDKit          3D

 82 86  0  0  0  0  0  0  0  0999 V2000
   -3.7140    7.1540   -3.3990 C   0  0  0  0  0  0  0  0  0  0  0  0
   -3.7670    7.2540   -1.8710 C   0  0  2  0  0  0  0  0  0  0  0  0
   -5.1940    7.0480   -1.3250 C   0  0  0  0  0  0  0  0  0  0  0  0
   -6.2940    7.3720   -2.3390 C   0  0  0  0  0  0  0  0  0  0  0  0
   -7.6270    7.5460   -1.6750 C   0  0  2  0  0  0  0  0  0  0  0  0
   -8.1760    6.3480   -1.1110 O   0  0  0  0  0  0  0  0  0  0  0  0
   -8.9100    6.9300   -2.2000 C   0  0  0  0  0  0  0  0  0  0  0  0
   -8.9230    6.0940   -3.4410 C   0  0  0  0  0  0  0  0  0  0  0  0
  -10.2150    7.5380   -1.7900 C   0  0  0  0  0  0  0  0  0  0  0  0
   -3.2260    8.6060   -1.4200 C   0  0  1  0  0  0  0  0  0  0  0  0
   -3.8490    9.0810   -0.0800 C   0  0  0  0  0  0  0  0  0  0  0  0
   -2.7360    9.8440    0.6840 C   0  0  0  0  0  0  0  0  0  0  0  0
   -1.6260   10.0710   -0.3690 C   0  0  1  0  0  0  0  0  0  0  0  0
   -2.0940   11.3160   -1.1850 C   0  0  0  0  0  0  0  0  0  0  0  0
   -0.1760   10.2570    0.1860 C   0  0  2  0  0  0  0  0  0  0  0  0
    0.0250   11.4880    1.0870 C   0  0  0  0  0  0  0  0  0  0  0  0
    0.4380   12.7360    0.3780 C   0  0  0  0  0  0  0  0  0  0  0  0
    0.9140   12.8000   -0.8790 C   0  0  0  0  0  0  0  0  0  0  0  0
    1.1710   11.5240   -1.6910 C   0  0  1  0  0  0  0  0  0  0  0  0
    2.5630   11.6130   -2.3690 C   0  0  0  0  0  0  0  0  0  0  0  0
    2.7260   12.8790   -3.2050 C   0  0  0  0  0  0  0  0  0  0  0  0
    2.5210   14.1270   -2.3510 C   0  0  2  0  0  0  0  0  0  0  0  0
    3.5860   14.2150   -1.3990 O   0  0  0  0  0  0  0  0  0  0  0  0
    1.1550   14.1440   -1.6100 C   0  0  0  0  0  0  0  0  0  0  0  0
    0.0100   14.3540   -2.6320 C   0  0  0  0  0  0  0  0  0  0  0  0
    1.1340   15.3840   -0.6750 C   0  0  0  0  0  0  0  0  0  0  0  0
    0.9570   10.1540   -0.9140 C   0  0  1  0  0  0  0  0  0  0  0  0
    2.2670    9.7560   -0.1680 C   0  0  0  0  0  0  0  0  0  0  0  0
    0.6750    9.0100   -1.9580 C   0  0  0  0  0  0  0  0  0  0  0  0
   -0.7920    8.7970   -2.3760 C   0  0  0  0  0  0  0  0  0  0  0  0
   -1.7050    8.7080   -1.1490 C   0  0  2  0  0  0  0  0  0  0  0  0
   -1.2710    7.4520   -0.3200 C   0  0  0  0  0  0  0  0  0  0  0  0
   -3.2170    6.2162   -3.6881 H   0  0  0  0  0  0  0  0  0  0  0  0
   -4.7371    7.1664   -3.8030 H   0  0  0  0  0  0  0  0  0  0  0  0
   -3.1499    8.0076   -3.8030 H   0  0  0  0  0  0  0  0  0  0  0  0
   -3.1388    6.4479   -1.4641 H   0  0  0  0  0  0  0  0  0  0  0  0
   -5.3009    5.9963   -1.0209 H   0  0  0  0  0  0  0  0  0  0  0  0
   -5.3190    7.7436   -0.4821 H   0  0  0  0  0  0  0  0  0  0  0  0
   -6.0326    8.3031   -2.8631 H   0  0  0  0  0  0  0  0  0  0  0  0
   -6.3693    6.5307   -3.0436 H   0  0  0  0  0  0  0  0  0  0  0  0
   -7.3701    8.5729   -1.3759 H   0  0  0  0  0  0  0  0  0  0  0  0
   -8.9396    5.0292   -3.1656 H   0  0  0  0  0  0  0  0  0  0  0  0
   -9.8175    6.3331   -4.0348 H   0  0  0  0  0  0  0  0  0  0  0  0
   -8.0215    6.3052   -4.0348 H   0  0  0  0  0  0  0  0  0  0  0  0
  -10.2772    7.5670   -0.6921 H   0  0  0  0  0  0  0  0  0  0  0  0
  -10.2841    8.5610   -2.1883 H   0  0  0  0  0  0  0  0  0  0  0  0
  -11.0427    6.9328   -2.1883 H   0  0  0  0  0  0  0  0  0  0  0  0
   -3.4930    9.2142   -2.2968 H   0  0  0  0  0  0  0  0  0  0  0  0
   -4.7015    9.7486   -0.2740 H   0  0  0  0  0  0  0  0  0  0  0  0
   -4.2191    8.2283    0.5082 H   0  0  0  0  0  0  0  0  0  0  0  0
   -3.1139   10.8049    1.0633 H   0  0  0  0  0  0  0  0  0  0  0  0
   -2.3729    9.2858    1.5596 H   0  0  0  0  0  0  0  0  0  0  0  0
   -2.3948   12.1162   -0.4928 H   0  0  0  0  0  0  0  0  0  0  0  0
   -1.2678   11.6708   -1.8187 H   0  0  0  0  0  0  0  0  0  0  0  0
   -2.9493   11.0387   -1.8187 H   0  0  0  0  0  0  0  0  0  0  0  0
   -0.0616    9.3835    0.8447 H   0  0  0  0  0  0  0  0  0  0  0  0
   -0.9246   11.6893    1.6045 H   0  0  0  0  0  0  0  0  0  0  0  0
    0.8521   11.2360    1.7670 H   0  0  0  0  0  0  0  0  0  0  0  0
    0.3452   13.6829    0.9301 H   0  0  0  0  0  0  0  0  0  0  0  0
    0.3841   11.4880   -2.4588 H   0  0  0  0  0  0  0  0  0  0  0  0
    3.3372   11.6042   -1.5876 H   0  0  0  0  0  0  0  0  0  0  0  0
    2.6610   10.7510   -3.0453 H   0  0  0  0  0  0  0  0  0  0  0  0
    3.7386   12.8990   -3.6343 H   0  0  0  0  0  0  0  0  0  0  0  0
    1.9696   12.8721   -4.0036 H   0  0  0  0  0  0  0  0  0  0  0  0
    2.5215   14.9938   -3.0282 H   0  0  0  0  0  0  0  0  0  0  0  0
    4.3320   13.6970   -1.7450 H   0  0  0  0  0  0  0  0  0  0  0  0
   -0.9340   14.5271   -2.0945 H   0  0  0  0  0  0  0  0  0  0  0  0
    0.2375   15.2254   -3.2636 H   0  0  0  0  0  0  0  0  0  0  0  0
   -0.0865   13.4586   -3.2636 H   0  0  0  0  0  0  0  0  0  0  0  0
    1.1396   15.0525    0.3738 H   0  0  0  0  0  0  0  0  0  0  0  0
    2.0218   16.0041   -0.8683 H   0  0  0  0  0  0  0  0  0  0  0  0
    0.2257   15.9737   -0.8683 H   0  0  0  0  0  0  0  0  0  0  0  0
    2.1003    9.8066    0.9181 H   0  0  0  0  0  0  0  0  0  0  0  0
    2.5514    8.7309   -0.4479 H   0  0  0  0  0  0  0  0  0  0  0  0
    3.0735   10.4496   -0.4479 H   0  0  0  0  0  0  0  0  0  0  0  0
    1.2499    9.2401   -2.8671 H   0  0  0  0  0  0  0  0  0  0  0  0
    0.9676    8.0789   -1.4506 H   0  0  0  0  0  0  0  0  0  0  0  0
   -1.1136    9.6415   -3.0032 H   0  0  0  0  0  0  0  0  0  0  0  0
   -0.8635    7.8525   -2.9353 H   0  0  0  0  0  0  0  0  0  0  0  0
   -1.3487    7.6768    0.7540 H   0  0  0  0  0  0  0  0  0  0  0  0
   -1.9287    6.6052   -0.5659 H   0  0  0  0  0  0  0  0  0  0  0  0
   -0.2309    7.1919   -0.5659 H   0  0  0  0  0  0  0  0  0  0  0  0
  1  2  1  0
  2  3  1  0
  3  4  1  0
  4  5  1  0
  5  6  1  0
  6  7  1  0
  7  8  1  0
  7  9  1  0
  2 10  1  0
 10 11  1  0
 11 12  1  0
 12 13  1  0
 13 14  1  6
 13 15  1  0
 15 16  1  0
 16 17  1  0
 17 18  2  0
 18 19  1  0
 19 20  1  0
 20 21  1  0
 21 22  1  0
 22 23  1  0
 22 24  1  0
 24 25  1  0
 24 26  1  0
 19 27  1  0
 27 28  1  1
 27 29  1  0
 29 30  1  0
 30 31  1  0
 31 32  1  1
  7  5  1  0
 31 10  1  0
 31 13  1  0
 27 15  1  0
 24 18  1  0
  1 33  1  0
  1 34  1  0
  1 35  1  0
  2 36  1  1
  3 37  1  0
  3 38  1  0
  4 39  1  0
  4 40  1  0
  5 41  1  1
  8 42  1  0
  8 43  1  0
  8 44  1  0
  9 45  1  0
  9 46  1  0
  9 47  1  0
 10 48  1  6
 11 49  1  0
 11 50  1  0
 12 51  1  0
 12 52  1  0
 14 53  1  0
 14 54  1  0
 14 55  1  0
 15 56  1  1
 16 57  1  0
 16 58  1  0
 17 59  1  0
 19 60  1  6
 20 61  1  0
 20 62  1  0
 21 63  1  0
 21 64  1  0
 22 65  1  6
 23 66  1  0
 25 67  1  0
 25 68  1  0
 25 69  1  0
 26 70  1  0
 26 71  1  0
 26 72  1  0
 28 73  1  0
 28 74  1  0
 28 75  1  0
 29 76  1  0
 29 77  1  0
 30 78  1  0
 30 79  1  0
 32 80  1  0
 32 81  1  0
 32 82  1  0
M  END
>  <meeko>  (9) 
{"is_sidechain": [false], "intermolecular_energy": 2.731, "internal_energy": -0.839}

$$$$
EPH_relaxed_0001_pdb2pqr_Repair_20_r2_0001_out
     RDKit          3D

 82 86  0  0  0  0  0  0  0  0999 V2000
   -0.8410   16.3430   -5.8260 C   0  0  0  0  0  0  0  0  0  0  0  0
    0.2420   15.6350   -6.6440 C   0  0  2  0  0  0  0  0  0  0  0  0
   -0.1690   15.4540   -8.1190 C   0  0  0  0  0  0  0  0  0  0  0  0
    0.4500   16.4900   -9.0620 C   0  0  0  0  0  0  0  0  0  0  0  0
    1.8500   16.1210   -9.4490 C   0  0  2  0  0  0  0  0  0  0  0  0
    2.3020   16.6970  -10.6810 O   0  0  0  0  0  0  0  0  0  0  0  0
    2.1870   15.2650  -10.6550 C   0  0  0  0  0  0  0  0  0  0  0  0
    1.1170   14.7240  -11.5510 C   0  0  0  0  0  0  0  0  0  0  0  0
    3.5040   14.5540  -10.6820 C   0  0  0  0  0  0  0  0  0  0  0  0
    0.5600   14.2800   -6.0230 C   0  0  1  0  0  0  0  0  0  0  0  0
    1.8240   13.6220   -6.6390 C   0  0  0  0  0  0  0  0  0  0  0  0
    2.5320   12.8540   -5.4940 C   0  0  0  0  0  0  0  0  0  0  0  0
    1.4930   12.8160   -4.3490 C   0  0  1  0  0  0  0  0  0  0  0  0
    0.5350   11.6390   -4.7160 C   0  0  0  0  0  0  0  0  0  0  0  0
    2.0640   12.6650   -2.9010 C   0  0  2  0  0  0  0  0  0  0  0  0
    2.8320   11.3590   -2.6360 C   0  0  0  0  0  0  0  0  0  0  0  0
    2.0060   10.2250   -2.1260 C   0  0  0  0  0  0  0  0  0  0  0  0
    0.7630   10.3290   -1.6210 C   0  0  0  0  0  0  0  0  0  0  0  0
    0.1000   11.7000   -1.4340 C   0  0  1  0  0  0  0  0  0  0  0  0
   -0.5460   11.7760   -0.0260 C   0  0  0  0  0  0  0  0  0  0  0  0
   -1.5080   10.6220    0.2400 C   0  0  0  0  0  0  0  0  0  0  0  0
   -0.7980    9.2780    0.1020 C   0  0  2  0  0  0  0  0  0  0  0  0
    0.1670    9.1560    1.1510 O   0  0  0  0  0  0  0  0  0  0  0  0
   -0.1010    9.0910   -1.2750 C   0  0  0  0  0  0  0  0  0  0  0  0
   -1.1710    8.9210   -2.3810 C   0  0  0  0  0  0  0  0  0  0  0  0
    0.6940    7.7580   -1.2310 C   0  0  0  0  0  0  0  0  0  0  0  0
    1.0130   12.9610   -1.7560 C   0  0  1  0  0  0  0  0  0  0  0  0
    1.8340   13.3600   -0.4910 C   0  0  0  0  0  0  0  0  0  0  0  0
    0.0910   14.1910   -2.0930 C   0  0  0  0  0  0  0  0  0  0  0  0
   -0.3430   14.3530   -3.5620 C   0  0  0  0  0  0  0  0  0  0  0  0
    0.8610   14.2470   -4.5040 C   0  0  2  0  0  0  0  0  0  0  0  0
    1.8320   15.4320   -4.1730 C   0  0  0  0  0  0  0  0  0  0  0  0
   -0.6365   16.2093   -4.7535 H   0  0  0  0  0  0  0  0  0  0  0  0
   -0.8409   17.4160   -6.0684 H   0  0  0  0  0  0  0  0  0  0  0  0
   -1.8238   15.9125   -6.0684 H   0  0  0  0  0  0  0  0  0  0  0  0
    1.1385   16.2721   -6.6267 H   0  0  0  0  0  0  0  0  0  0  0  0
    0.1471   14.4529   -8.4473 H   0  0  0  0  0  0  0  0  0  0  0  0
   -1.2599   15.5864   -8.1674 H   0  0  0  0  0  0  0  0  0  0  0  0
   -0.1653   16.5569   -9.9714 H   0  0  0  0  0  0  0  0  0  0  0  0
    0.4829   17.4557   -8.5363 H   0  0  0  0  0  0  0  0  0  0  0  0
    2.1500   16.0576   -8.3926 H   0  0  0  0  0  0  0  0  0  0  0  0
    0.3009   14.3114  -10.9397 H   0  0  0  0  0  0  0  0  0  0  0  0
    0.7266   15.5331  -12.1859 H   0  0  0  0  0  0  0  0  0  0  0  0
    1.5372   13.9300  -12.1859 H   0  0  0  0  0  0  0  0  0  0  0  0
    3.8431   14.3710   -9.6517 H   0  0  0  0  0  0  0  0  0  0  0  0
    3.3917   13.5940  -11.2071 H   0  0  0  0  0  0  0  0  0  0  0  0
    4.2450   15.1746  -11.2071 H   0  0  0  0  0  0  0  0  0  0  0  0
   -0.3844   13.7559   -6.2313 H   0  0  0  0  0  0  0  0  0  0  0  0
    1.5361   12.9258   -7.4406 H   0  0  0  0  0  0  0  0  0  0  0  0
    2.4901   14.3801   -7.0768 H   0  0  0  0  0  0  0  0  0  0  0  0
    2.7945   11.8349   -5.8142 H   0  0  0  0  0  0  0  0  0  0  0  0
    3.4726   13.3354   -5.1880 H   0  0  0  0  0  0  0  0  0  0  0  0
    0.1561   11.1735   -3.7942 H   0  0  0  0  0  0  0  0  0  0  0  0
   -0.3096   12.0241   -5.3062 H   0  0  0  0  0  0  0  0  0  0  0  0
    1.0835   10.8902   -5.3062 H   0  0  0  0  0  0  0  0  0  0  0  0
    2.8157   13.4669   -2.8585 H   0  0  0  0  0  0  0  0  0  0  0  0
    3.2986   11.0417   -3.5802 H   0  0  0  0  0  0  0  0  0  0  0  0
    3.5569   11.5886   -1.8412 H   0  0  0  0  0  0  0  0  0  0  0  0
    2.4508    9.2198   -2.1664 H   0  0  0  0  0  0  0  0  0  0  0  0
   -0.6806   11.7680   -2.2060 H   0  0  0  0  0  0  0  0  0  0  0  0
    0.2526   11.7506    0.7301 H   0  0  0  0  0  0  0  0  0  0  0  0
   -1.1236   12.7107    0.0261 H   0  0  0  0  0  0  0  0  0  0  0  0
   -1.9082   10.7147    1.2604 H   0  0  0  0  0  0  0  0  0  0  0  0
   -2.3226   10.6664   -0.4979 H   0  0  0  0  0  0  0  0  0  0  0  0
   -1.5640    8.4918    0.1743 H   0  0  0  0  0  0  0  0  0  0  0  0
    0.9230    8.6570    0.7980 H   0  0  0  0  0  0  0  0  0  0  0  0
   -2.1561    8.7645   -1.9172 H   0  0  0  0  0  0  0  0  0  0  0  0
   -1.1995    9.8259   -3.0058 H   0  0  0  0  0  0  0  0  0  0  0  0
   -0.9176    8.0518   -3.0058 H   0  0  0  0  0  0  0  0  0  0  0  0
    0.8667    7.4685   -0.1839 H   0  0  0  0  0  0  0  0  0  0  0  0
    0.1179    6.9705   -1.7389 H   0  0  0  0  0  0  0  0  0  0  0  0
    1.6606    7.8906   -1.7389 H   0  0  0  0  0  0  0  0  0  0  0  0
    1.2706   13.0862    0.4132 H   0  0  0  0  0  0  0  0  0  0  0  0
    2.7978   12.8298   -0.4971 H   0  0  0  0  0  0  0  0  0  0  0  0
    2.0126   14.4454   -0.4971 H   0  0  0  0  0  0  0  0  0  0  0  0
   -0.8211   14.0995   -1.4849 H   0  0  0  0  0  0  0  0  0  0  0  0
    0.7040   15.0779   -1.8750 H   0  0  0  0  0  0  0  0  0  0  0  0
   -1.0667   13.5634   -3.8127 H   0  0  0  0  0  0  0  0  0  0  0  0
   -0.7990   15.3464   -3.6857 H   0  0  0  0  0  0  0  0  0  0  0  0
    1.9203   15.5398   -3.0819 H   0  0  0  0  0  0  0  0  0  0  0  0
    2.8233   15.2247   -4.6024 H   0  0  0  0  0  0  0  0  0  0  0  0
    1.4339   16.3632   -4.6024 H   0  0  0  0  0  0  0  0  0  0  0  0
  1  2  1  0
  2  3  1  0
  3  4  1  0
  4  5  1  0
  5  6  1  0
  6  7  1  0
  7  8  1  0
  7  9  1  0
  2 10  1  0
 10 11  1  0
 11 12  1  0
 12 13  1  0
 13 14  1  6
 13 15  1  0
 15 16  1  0
 16 17  1  0
 17 18  2  0
 18 19  1  0
 19 20  1  0
 20 21  1  0
 21 22  1  0
 22 23  1  0
 22 24  1  0
 24 25  1  0
 24 26  1  0
 19 27  1  0
 27 28  1  1
 27 29  1  0
 29 30  1  0
 30 31  1  0
 31 32  1  1
  7  5  1  0
 31 10  1  0
 31 13  1  0
 27 15  1  0
 24 18  1  0
  1 33  1  0
  1 34  1  0
  1 35  1  0
  2 36  1  6
  3 37  1  0
  3 38  1  0
  4 39  1  0
  4 40  1  0
  5 41  1  1
  8 42  1  0
  8 43  1  0
  8 44  1  0
  9 45  1  0
  9 46  1  0
  9 47  1  0
 10 48  1  1
 11 49  1  0
 11 50  1  0
 12 51  1  0
 12 52  1  0
 14 53  1  0
 14 54  1  0
 14 55  1  0
 15 56  1  6
 16 57  1  0
 16 58  1  0
 17 59  1  0
 19 60  1  6
 20 61  1  0
 20 62  1  0
 21 63  1  0
 21 64  1  0
 22 65  1  1
 23 66  1  0
 25 67  1  0
 25 68  1  0
 25 69  1  0
 26 70  1  0
 26 71  1  0
 26 72  1  0
 28 73  1  0
 28 74  1  0
 28 75  1  0
 29 76  1  0
 29 77  1  0
 30 78  1  0
 30 79  1  0
 32 80  1  0
 32 81  1  0
 32 82  1  0
M  END
>  <meeko>  (10) 
{"is_sidechain": [false], "intermolecular_energy": 2.731, "internal_energy": -0.839}

$$$$
EPH_relaxed_0001_pdb2pqr_Repair_20_r2_0001_out
     RDKit          3D

 82 86  0  0  0  0  0  0  0  0999 V2000
   -0.2930   15.1060   -7.6120 C   0  0  0  0  0  0  0  0  0  0  0  0
    1.0880   15.0750   -6.9510 C   0  0  2  0  0  0  0  0  0  0  0  0
    2.2290   15.1540   -7.9850 C   0  0  0  0  0  0  0  0  0  0  0  0
    2.2630   16.4720   -8.7650 C   0  0  0  0  0  0  0  0  0  0  0  0
    1.8620   16.2790  -10.1960 C   0  0  2  0  0  0  0  0  0  0  0  0
    1.1990   15.0390  -10.4710 O   0  0  0  0  0  0  0  0  0  0  0  0
    2.4750   15.2280  -11.1020 C   0  0  0  0  0  0  0  0  0  0  0  0
    3.5410   14.3000  -10.6110 C   0  0  0  0  0  0  0  0  0  0  0  0
    2.3910   15.4240  -12.5840 C   0  0  0  0  0  0  0  0  0  0  0  0
    1.2340   13.8120   -6.1110 C   0  0  1  0  0  0  0  0  0  0  0  0
    2.6660   13.2180   -6.1680 C   0  0  0  0  0  0  0  0  0  0  0  0
    2.9580   12.6160   -4.7700 C   0  0  0  0  0  0  0  0  0  0  0  0
    1.5820   12.5850   -4.0640 C   0  0  1  0  0  0  0  0  0  0  0  0
    0.8800   11.3020   -4.6090 C   0  0  0  0  0  0  0  0  0  0  0  0
    1.6060   12.6110   -2.5010 C   0  0  2  0  0  0  0  0  0  0  0  0
    2.2960   11.4050   -1.8390 C   0  0  0  0  0  0  0  0  0  0  0  0
    1.4020   10.2510   -1.5270 C   0  0  0  0  0  0  0  0  0  0  0  0
    0.0570   10.2880   -1.5040 C   0  0  0  0  0  0  0  0  0  0  0  0
   -0.6990   11.6060   -1.7150 C   0  0  1  0  0  0  0  0  0  0  0  0
   -1.8080   11.7450   -0.6390 C   0  0  0  0  0  0  0  0  0  0  0  0
   -2.7400   10.5380   -0.6000 C   0  0  0  0  0  0  0  0  0  0  0  0
   -1.9590    9.2550   -0.3300 C   0  0  2  0  0  0  0  0  0  0  0  0
   -1.4260    9.3090    0.9970 O   0  0  0  0  0  0  0  0  0  0  0  0
   -0.8080    9.0130   -1.3460 C   0  0  0  0  0  0  0  0  0  0  0  0
   -1.4030    8.6540   -2.7300 C   0  0  0  0  0  0  0  0  0  0  0  0
   -0.0130    7.7640   -0.8780 C   0  0  0  0  0  0  0  0  0  0  0  0
    0.2020   12.9100   -1.8350 C   0  0  1  0  0  0  0  0  0  0  0  0
    0.4950   13.4870   -0.4170 C   0  0  0  0  0  0  0  0  0  0  0  0
   -0.6020   14.0210   -2.6090 C   0  0  0  0  0  0  0  0  0  0  0  0
   -0.4910   14.0160   -4.1450 C   0  0  0  0  0  0  0  0  0  0  0  0
    0.9740   13.9370   -4.5880 C   0  0  2  0  0  0  0  0  0  0  0  0
    1.7000   15.2260   -4.0740 C   0  0  0  0  0  0  0  0  0  0  0  0
   -1.0712   15.1235   -6.8348 H   0  0  0  0  0  0  0  0  0  0  0  0
   -0.3797   16.0063   -8.2380 H   0  0  0  0  0  0  0  0  0  0  0  0
   -0.4201   14.2105   -8.2380 H   0  0  0  0  0  0  0  0  0  0  0  0
    1.1653   15.9623   -6.3054 H   0  0  0  0  0  0  0  0  0  0  0  0
    3.1862   15.0391   -7.4553 H   0  0  0  0  0  0  0  0  0  0  0  0
    2.0555   14.3516   -8.7171 H   0  0  0  0  0  0  0  0  0  0  0  0
    1.5694   17.1836   -8.2932 H   0  0  0  0  0  0  0  0  0  0  0  0
    3.2939   16.8554   -8.7462 H   0  0  0  0  0  0  0  0  0  0  0  0
    1.7040   17.3603  -10.3214 H   0  0  0  0  0  0  0  0  0  0  0  0
    3.5455   14.2960   -9.5110 H   0  0  0  0  0  0  0  0  0  0  0  0
    3.3409   13.2834  -10.9805 H   0  0  0  0  0  0  0  0  0  0  0  0
    4.5203   14.6383  -10.9805 H   0  0  0  0  0  0  0  0  0  0  0  0
    1.9661   16.4155  -12.7992 H   0  0  0  0  0  0  0  0  0  0  0  0
    3.3981   15.3540  -13.0208 H   0  0  0  0  0  0  0  0  0  0  0  0
    1.7471   14.6464  -13.0208 H   0  0  0  0  0  0  0  0  0  0  0  0
    0.4553   13.1902   -6.5769 H   0  0  0  0  0  0  0  0  0  0  0  0
    2.7199   12.4332   -6.9369 H   0  0  0  0  0  0  0  0  0  0  0  0
    3.4039   13.9919   -6.4261 H   0  0  0  0  0  0  0  0  0  0  0  0
    3.3699   11.6003   -4.8628 H   0  0  0  0  0  0  0  0  0  0  0  0
    3.7013   13.2024   -4.2100 H   0  0  0  0  0  0  0  0  0  0  0  0
    0.5413   10.6829   -3.7652 H   0  0  0  0  0  0  0  0  0  0  0  0
    0.0141   11.5905   -5.2229 H   0  0  0  0  0  0  0  0  0  0  0  0
    1.5899   10.7283   -5.2229 H   0  0  0  0  0  0  0  0  0  0  0  0
    2.2500   13.4775   -2.2901 H   0  0  0  0  0  0  0  0  0  0  0  0
    3.0850   11.0498   -2.5182 H   0  0  0  0  0  0  0  0  0  0  0  0
    2.6765   11.7653   -0.8719 H   0  0  0  0  0  0  0  0  0  0  0  0
    1.8833    9.2891   -1.2964 H   0  0  0  0  0  0  0  0  0  0  0  0
   -1.1549   11.5389   -2.7138 H   0  0  0  0  0  0  0  0  0  0  0  0
   -1.3315   11.8545    0.3464 H   0  0  0  0  0  0  0  0  0  0  0  0
   -2.4139   12.6264   -0.8960 H   0  0  0  0  0  0  0  0  0  0  0  0
   -3.4827   10.6822    0.1985 H   0  0  0  0  0  0  0  0  0  0  0  0
   -3.2382   10.4471   -1.5765 H   0  0  0  0  0  0  0  0  0  0  0  0
   -2.6588    8.4138   -0.4425 H   0  0  0  0  0  0  0  0  0  0  0  0
   -2.1210    9.6610    1.5790 H   0  0  0  0  0  0  0  0  0  0  0  0
   -2.3374    8.0902   -2.5923 H   0  0  0  0  0  0  0  0  0  0  0  0
   -1.6111    9.5774   -3.2904 H   0  0  0  0  0  0  0  0  0  0  0  0
   -0.6831    8.0394   -3.2904 H   0  0  0  0  0  0  0  0  0  0  0  0
    0.0069    7.7328    0.2214 H   0  0  0  0  0  0  0  0  0  0  0  0
   -0.4990    6.8549   -1.2619 H   0  0  0  0  0  0  0  0  0  0  0  0
    1.0163    7.8195   -1.2619 H   0  0  0  0  0  0  0  0  0  0  0  0
    0.1367   12.7815    0.3471 H   0  0  0  0  0  0  0  0  0  0  0  0
    1.5783   13.6367   -0.2987 H   0  0  0  0  0  0  0  0  0  0  0  0
   -0.0233   14.4500   -0.2987 H   0  0  0  0  0  0  0  0  0  0  0  0
   -1.6649   13.9025   -2.3519 H   0  0  0  0  0  0  0  0  0  0  0  0
   -0.1541   14.9741   -2.2913 H   0  0  0  0  0  0  0  0  0  0  0  0
   -1.0347   13.1462   -4.5424 H   0  0  0  0  0  0  0  0  0  0  0  0
   -0.9248   14.9501   -4.5314 H   0  0  0  0  0  0  0  0  0  0  0  0
    1.7029   15.2312   -2.9740 H   0  0  0  0  0  0  0  0  0  0  0  0
    2.7360   15.2353   -4.4435 H   0  0  0  0  0  0  0  0  0  0  0  0
    1.1709   16.1168   -4.4435 H   0  0  0  0  0  0  0  0  0  0  0  0
  1  2  1  0
  2  3  1  0
  3  4  1  0
  4  5  1  0
  5  6  1  0
  6  7  1  0
  7  8  1  0
  7  9  1  0
  2 10  1  0
 10 11  1  0
 11 12  1  0
 12 13  1  0
 13 14  1  1
 13 15  1  0
 15 16  1  0
 16 17  1  0
 17 18  2  0
 18 19  1  0
 19 20  1  0
 20 21  1  0
 21 22  1  0
 22 23  1  0
 22 24  1  0
 24 25  1  0
 24 26  1  0
 19 27  1  0
 27 28  1  1
 27 29  1  0
 29 30  1  0
 30 31  1  0
 31 32  1  1
  7  5  1  0
 31 10  1  0
 31 13  1  0
 27 15  1  0
 24 18  1  0
  1 33  1  0
  1 34  1  0
  1 35  1  0
  2 36  1  1
  3 37  1  0
  3 38  1  0
  4 39  1  0
  4 40  1  0
  5 41  1  6
  8 42  1  0
  8 43  1  0
  8 44  1  0
  9 45  1  0
  9 46  1  0
  9 47  1  0
 10 48  1  6
 11 49  1  0
 11 50  1  0
 12 51  1  0
 12 52  1  0
 14 53  1  0
 14 54  1  0
 14 55  1  0
 15 56  1  6
 16 57  1  0
 16 58  1  0
 17 59  1  0
 19 60  1  6
 20 61  1  0
 20 62  1  0
 21 63  1  0
 21 64  1  0
 22 65  1  1
 23 66  1  0
 25 67  1  0
 25 68  1  0
 25 69  1  0
 26 70  1  0
 26 71  1  0
 26 72  1  0
 28 73  1  0
 28 74  1  0
 28 75  1  0
 29 76  1  0
 29 77  1  0
 30 78  1  0
 30 79  1  0
 32 80  1  0
 32 81  1  0
 32 82  1  0
M  END
>  <meeko>  (11) 
{"is_sidechain": [false], "intermolecular_energy": 2.731, "internal_energy": -0.839}

$$$$
EPH_relaxed_0001_pdb2pqr_Repair_20_r2_0001_out
     RDKit          3D

 82 86  0  0  0  0  0  0  0  0999 V2000
   -0.3140   18.6130   -2.1490 C   0  0  0  0  0  0  0  0  0  0  0  0
    0.6890   17.9550   -1.1960 C   0  0  2  0  0  0  0  0  0  0  0  0
    2.0020   18.7560   -1.0910 C   0  0  0  0  0  0  0  0  0  0  0  0
    2.2000   19.4390    0.2650 C   0  0  0  0  0  0  0  0  0  0  0  0
    3.6210   19.3450    0.7310 C   0  0  2  0  0  0  0  0  0  0  0  0
    3.8590   18.3450    1.7300 O   0  0  0  0  0  0  0  0  0  0  0  0
    4.0670   19.7080    2.1350 C   0  0  0  0  0  0  0  0  0  0  0  0
    3.0930   20.1940    3.1620 C   0  0  0  0  0  0  0  0  0  0  0  0
    5.5050   20.0570    2.3610 C   0  0  0  0  0  0  0  0  0  0  0  0
    0.9820   16.5310   -1.6530 C   0  0  1  0  0  0  0  0  0  0  0  0
    2.3520   16.4040   -2.3700 C   0  0  0  0  0  0  0  0  0  0  0  0
    2.9260   15.0130   -1.9960 C   0  0  0  0  0  0  0  0  0  0  0  0
    1.7360   14.2600   -1.3570 C   0  0  1  0  0  0  0  0  0  0  0  0
    0.9010   13.7310   -2.5660 C   0  0  0  0  0  0  0  0  0  0  0  0
    2.1000   13.1120   -0.3600 C   0  0  2  0  0  0  0  0  0  0  0  0
    2.8870   11.9400   -0.9730 C   0  0  0  0  0  0  0  0  0  0  0  0
    2.0540   10.8260   -1.5130 C   0  0  0  0  0  0  0  0  0  0  0  0
    0.7470   10.6310   -1.2560 C   0  0  0  0  0  0  0  0  0  0  0  0
   -0.0040   11.5290   -0.2650 C   0  0  1  0  0  0  0  0  0  0  0  0
   -0.8480   10.6490    0.6940 C   0  0  0  0  0  0  0  0  0  0  0  0
   -1.7800    9.6980   -0.0520 C   0  0  0  0  0  0  0  0  0  0  0  0
   -0.9910    8.7830   -0.9850 C   0  0  2  0  0  0  0  0  0  0  0  0
   -0.1810    7.9070   -0.1940 O   0  0  0  0  0  0  0  0  0  0  0  0
   -0.0940    9.5570   -1.9900 C   0  0  0  0  0  0  0  0  0  0  0  0
   -0.9840   10.2700   -3.0390 C   0  0  0  0  0  0  0  0  0  0  0  0
    0.7520    8.5180   -2.7740 C   0  0  0  0  0  0  0  0  0  0  0  0
    0.8820   12.5980    0.5090 C   0  0  1  0  0  0  0  0  0  0  0  0
    1.4900   11.9560    1.7930 C   0  0  0  0  0  0  0  0  0  0  0  0
   -0.0440   13.7750    0.9970 C   0  0  0  0  0  0  0  0  0  0  0  0
   -0.2690   14.9370    0.0110 C   0  0  0  0  0  0  0  0  0  0  0  0
    1.0620   15.4360   -0.5610 C   0  0  2  0  0  0  0  0  0  0  0  0
    1.9140   15.9950    0.6290 C   0  0  0  0  0  0  0  0  0  0  0  0
   -1.0934   19.1243   -1.5651 H   0  0  0  0  0  0  0  0  0  0  0  0
    0.2083   19.3445   -2.7831 H   0  0  0  0  0  0  0  0  0  0  0  0
   -0.7770   17.8426   -2.7831 H   0  0  0  0  0  0  0  0  0  0  0  0
    0.2327   17.9378   -0.1952 H   0  0  0  0  0  0  0  0  0  0  0  0
    2.8432   18.0674   -1.2590 H   0  0  0  0  0  0  0  0  0  0  0  0
    1.9538   19.5526   -1.8480 H   0  0  0  0  0  0  0  0  0  0  0  0
    1.9244   20.5000    0.1733 H   0  0  0  0  0  0  0  0  0  0  0  0
    1.5630   18.9284    1.0022 H   0  0  0  0  0  0  0  0  0  0  0  0
    3.9904   19.6443   -0.2610 H   0  0  0  0  0  0  0  0  0  0  0  0
    3.4912   19.9953    4.1680 H   0  0  0  0  0  0  0  0  0  0  0  0
    2.9369   21.2756    3.0365 H   0  0  0  0  0  0  0  0  0  0  0  0
    2.1349   19.6683    3.0365 H   0  0  0  0  0  0  0  0  0  0  0  0
    5.7051   20.1056    3.4416 H   0  0  0  0  0  0  0  0  0  0  0  0
    6.1451   19.2881    1.9038 H   0  0  0  0  0  0  0  0  0  0  0  0
    5.7215   21.0338    1.9038 H   0  0  0  0  0  0  0  0  0  0  0  0
    0.1050   16.3592   -2.2944 H   0  0  0  0  0  0  0  0  0  0  0  0
    2.2176   16.4778   -3.4593 H   0  0  0  0  0  0  0  0  0  0  0  0
    3.0352   17.2089   -2.0613 H   0  0  0  0  0  0  0  0  0  0  0  0
    3.2826   14.4859   -2.8932 H   0  0  0  0  0  0  0  0  0  0  0  0
    3.7876   15.0859   -1.3160 H   0  0  0  0  0  0  0  0  0  0  0  0
    0.0267   13.1771   -2.1934 H   0  0  0  0  0  0  0  0  0  0  0  0
    0.5634   14.5803   -3.1781 H   0  0  0  0  0  0  0  0  0  0  0  0
    1.5247   13.0629   -3.1781 H   0  0  0  0  0  0  0  0  0  0  0  0
    2.7964   13.6111    0.3298 H   0  0  0  0  0  0  0  0  0  0  0  0
    3.5000   12.3358   -1.7961 H   0  0  0  0  0  0  0  0  0  0  0  0
    3.4778   11.5078   -0.1520 H   0  0  0  0  0  0  0  0  0  0  0  0
    2.5498   10.1029   -2.1773 H   0  0  0  0  0  0  0  0  0  0  0  0
   -0.6680   12.1630   -0.8710 H   0  0  0  0  0  0  0  0  0  0  0  0
   -0.1657   10.0552    1.3199 H   0  0  0  0  0  0  0  0  0  0  0  0
   -1.4727   11.3210    1.3008 H   0  0  0  0  0  0  0  0  0  0  0  0
   -2.3268    9.0831    0.6780 H   0  0  0  0  0  0  0  0  0  0  0  0
   -2.4816   10.2938   -0.6543 H   0  0  0  0  0  0  0  0  0  0  0  0
   -1.7191    8.2184   -1.5859 H   0  0  0  0  0  0  0  0  0  0  0  0
    0.7410    8.0230   -0.4770 H   0  0  0  0  0  0  0  0  0  0  0  0
   -1.7426   10.8777   -2.5240 H   0  0  0  0  0  0  0  0  0  0  0  0
   -0.3591   10.9202   -3.6689 H   0  0  0  0  0  0  0  0  0  0  0  0
   -1.4822    9.5183   -3.6689 H   0  0  0  0  0  0  0  0  0  0  0  0
    1.2825    7.8664   -2.0641 H   0  0  0  0  0  0  0  0  0  0  0  0
    0.0900    7.9086   -3.4067 H   0  0  0  0  0  0  0  0  0  0  0  0
    1.4829    9.0428   -3.4067 H   0  0  0  0  0  0  0  0  0  0  0  0
    1.0457   12.4252    2.6832 H   0  0  0  0  0  0  0  0  0  0  0  0
    1.2745   10.8773    1.8009 H   0  0  0  0  0  0  0  0  0  0  0  0
    2.5788   12.1125    1.8009 H   0  0  0  0  0  0  0  0  0  0  0  0
   -1.0284   13.3465    1.2364 H   0  0  0  0  0  0  0  0  0  0  0  0
    0.4849   14.2216    1.8519 H   0  0  0  0  0  0  0  0  0  0  0  0
   -0.9079   14.5900   -0.8144 H   0  0  0  0  0  0  0  0  0  0  0  0
   -0.7521   15.7656    0.5495 H   0  0  0  0  0  0  0  0  0  0  0  0
    1.4548   15.6937    1.5821 H   0  0  0  0  0  0  0  0  0  0  0  0
    2.9354   15.5910    0.5702 H   0  0  0  0  0  0  0  0  0  0  0  0
    1.9500   17.0928    0.5702 H   0  0  0  0  0  0  0  0  0  0  0  0
  1  2  1  0
  2  3  1  0
  3  4  1  0
  4  5  1  0
  5  6  1  0
  6  7  1  0
  7  8  1  0
  7  9  1  0
  2 10  1  0
 10 11  1  0
 11 12  1  0
 12 13  1  0
 13 14  1  6
 13 15  1  0
 15 16  1  0
 16 17  1  0
 17 18  2  0
 18 19  1  0
 19 20  1  0
 20 21  1  0
 21 22  1  0
 22 23  1  0
 22 24  1  0
 24 25  1  0
 24 26  1  0
 19 27  1  0
 27 28  1  1
 27 29  1  0
 29 30  1  0
 30 31  1  0
 31 32  1  1
  7  5  1  0
 31 10  1  0
 31 13  1  0
 27 15  1  0
 24 18  1  0
  1 33  1  0
  1 34  1  0
  1 35  1  0
  2 36  1  1
  3 37  1  0
  3 38  1  0
  4 39  1  0
  4 40  1  0
  5 41  1  6
  8 42  1  0
  8 43  1  0
  8 44  1  0
  9 45  1  0
  9 46  1  0
  9 47  1  0
 10 48  1  6
 11 49  1  0
 11 50  1  0
 12 51  1  0
 12 52  1  0
 14 53  1  0
 14 54  1  0
 14 55  1  0
 15 56  1  1
 16 57  1  0
 16 58  1  0
 17 59  1  0
 19 60  1  6
 20 61  1  0
 20 62  1  0
 21 63  1  0
 21 64  1  0
 22 65  1  6
 23 66  1  0
 25 67  1  0
 25 68  1  0
 25 69  1  0
 26 70  1  0
 26 71  1  0
 26 72  1  0
 28 73  1  0
 28 74  1  0
 28 75  1  0
 29 76  1  0
 29 77  1  0
 30 78  1  0
 30 79  1  0
 32 80  1  0
 32 81  1  0
 32 82  1  0
M  END
>  <meeko>  (12) 
{"is_sidechain": [false], "intermolecular_energy": 2.731, "internal_energy": -0.839}

$$$$
EPH_relaxed_0001_pdb2pqr_Repair_20_r2_0001_out
     RDKit          3D

 82 86  0  0  0  0  0  0  0  0999 V2000
   -2.0960    7.7520   -2.2090 C   0  0  0  0  0  0  0  0  0  0  0  0
   -2.2150    8.4020   -0.8280 C   0  0  2  0  0  0  0  0  0  0  0  0
   -3.6650    8.3910   -0.3040 C   0  0  0  0  0  0  0  0  0  0  0  0
   -4.6870    7.8920   -1.3290 C   0  0  0  0  0  0  0  0  0  0  0  0
   -5.8620    7.2380   -0.6680 C   0  0  2  0  0  0  0  0  0  0  0  0
   -6.3810    6.0970   -1.3630 O   0  0  0  0  0  0  0  0  0  0  0  0
   -7.2580    7.2310   -1.2610 C   0  0  0  0  0  0  0  0  0  0  0  0
   -7.5530    7.8920   -2.5710 C   0  0  0  0  0  0  0  0  0  0  0  0
   -8.4230    7.0120   -0.3470 C   0  0  0  0  0  0  0  0  0  0  0  0
   -1.6910    9.8330   -0.8810 C   0  0  1  0  0  0  0  0  0  0  0  0
   -1.2600   10.3630    0.5130 C   0  0  0  0  0  0  0  0  0  0  0  0
   -0.0390   11.2900    0.2810 C   0  0  0  0  0  0  0  0  0  0  0  0
   -0.0150   11.5270   -1.2470 C   0  0  1  0  0  0  0  0  0  0  0  0
   -1.0730   12.6470   -1.4970 C   0  0  0  0  0  0  0  0  0  0  0  0
    1.3730   11.8950   -1.8670 C   0  0  2  0  0  0  0  0  0  0  0  0
    1.9840   13.2130   -1.3610 C   0  0  0  0  0  0  0  0  0  0  0  0
    1.6240   14.4280   -2.1510 C   0  0  0  0  0  0  0  0  0  0  0  0
    1.0780   14.4270   -3.3820 C   0  0  0  0  0  0  0  0  0  0  0  0
    0.8580   13.1140   -4.1450 C   0  0  1  0  0  0  0  0  0  0  0  0
    1.3590   13.2740   -5.6050 C   0  0  0  0  0  0  0  0  0  0  0  0
    0.7320   14.4720   -6.3110 C   0  0  0  0  0  0  0  0  0  0  0  0
    1.0210   15.7650   -5.5530 C   0  0  2  0  0  0  0  0  0  0  0  0
    2.4250   16.0340   -5.6210 O   0  0  0  0  0  0  0  0  0  0  0  0
    0.5690   15.7190   -4.0670 C   0  0  0  0  0  0  0  0  0  0  0  0
   -0.9780   15.7310   -3.9930 C   0  0  0  0  0  0  0  0  0  0  0  0
    1.0460   17.0280   -3.3820 C   0  0  0  0  0  0  0  0  0  0  0  0
    1.4220   11.8030   -3.4460 C   0  0  1  0  0  0  0  0  0  0  0  0
    2.9180   11.5950   -3.8330 C   0  0  0  0  0  0  0  0  0  0  0  0
    0.6430   10.5510   -3.9970 C   0  0  0  0  0  0  0  0  0  0  0  0
   -0.6590   10.1670   -3.2680 C   0  0  0  0  0  0  0  0  0  0  0  0
   -0.4400   10.1000   -1.7530 C   0  0  2  0  0  0  0  0  0  0  0  0
    0.6040    8.9670   -1.4700 C   0  0  0  0  0  0  0  0  0  0  0  0
   -1.8990    6.6761   -2.0921 H   0  0  0  0  0  0  0  0  0  0  0  0
   -3.0352    7.8947   -2.7636 H   0  0  0  0  0  0  0  0  0  0  0  0
   -1.2683    8.2182   -2.7636 H   0  0  0  0  0  0  0  0  0  0  0  0
   -1.6072    7.8087   -0.1290 H   0  0  0  0  0  0  0  0  0  0  0  0
   -3.7102    7.7359    0.5785 H   0  0  0  0  0  0  0  0  0  0  0  0
   -3.9291    9.4325   -0.0681 H   0  0  0  0  0  0  0  0  0  0  0  0
   -5.0425    8.7469   -1.9230 H   0  0  0  0  0  0  0  0  0  0  0  0
   -4.1941    7.1450   -1.9685 H   0  0  0  0  0  0  0  0  0  0  0  0
   -5.4851    7.5135    0.3280 H   0  0  0  0  0  0  0  0  0  0  0  0
   -7.9952    8.8829   -2.3904 H   0  0  0  0  0  0  0  0  0  0  0  0
   -6.6201    8.0055   -3.1427 H   0  0  0  0  0  0  0  0  0  0  0  0
   -8.2605    7.2734   -3.1427 H   0  0  0  0  0  0  0  0  0  0  0  0
   -8.0860    7.0753    0.6982 H   0  0  0  0  0  0  0  0  0  0  0  0
   -9.1855    7.7825   -0.5338 H   0  0  0  0  0  0  0  0  0  0  0  0
   -8.8536    6.0172   -0.5338 H   0  0  0  0  0  0  0  0  0  0  0  0
   -2.5674   10.3345   -1.3174 H   0  0  0  0  0  0  0  0  0  0  0  0
   -2.0829   10.9287    0.9742 H   0  0  0  0  0  0  0  0  0  0  0  0
   -1.0037    9.5339    1.1889 H   0  0  0  0  0  0  0  0  0  0  0  0
   -0.1652   12.2408    0.8196 H   0  0  0  0  0  0  0  0  0  0  0  0
    0.8978   10.8466    0.6495 H   0  0  0  0  0  0  0  0  0  0  0  0
   -1.4356   13.0309   -0.5320 H   0  0  0  0  0  0  0  0  0  0  0  0
   -0.6116   13.4665   -2.0676 H   0  0  0  0  0  0  0  0  0  0  0  0
   -1.9174   12.2330   -2.0676 H   0  0  0  0  0  0  0  0  0  0  0  0
    2.0238   11.0967   -1.4808 H   0  0  0  0  0  0  0  0  0  0  0  0
    1.6466   13.3686   -0.3256 H   0  0  0  0  0  0  0  0  0  0  0  0
    3.0739   13.0996   -1.4571 H   0  0  0  0  0  0  0  0  0  0  0  0
    1.8215   15.4063   -1.6884 H   0  0  0  0  0  0  0  0  0  0  0  0
   -0.2277   12.9371   -4.1401 H   0  0  0  0  0  0  0  0  0  0  0  0
    2.4511   13.4052   -5.5906 H   0  0  0  0  0  0  0  0  0  0  0  0
    1.0669   12.3697   -6.1590 H   0  0  0  0  0  0  0  0  0  0  0  0
    1.1478   14.5495   -7.3265 H   0  0  0  0  0  0  0  0  0  0  0  0
   -0.3574   14.3249   -6.3514 H   0  0  0  0  0  0  0  0  0  0  0  0
    0.4387   16.5658   -6.0323 H   0  0  0  0  0  0  0  0  0  0  0  0
    2.5370   16.9250   -5.9930 H   0  0  0  0  0  0  0  0  0  0  0  0
   -1.2947   15.7335   -2.9396 H   0  0  0  0  0  0  0  0  0  0  0  0
   -1.3620   16.6322   -4.4934 H   0  0  0  0  0  0  0  0  0  0  0  0
   -1.3760   14.8359   -4.4934 H   0  0  0  0  0  0  0  0  0  0  0  0
    1.0020   16.9072   -2.2895 H   0  0  0  0  0  0  0  0  0  0  0  0
    2.0809   17.2446   -3.6856 H   0  0  0  0  0  0  0  0  0  0  0  0
    0.3931   17.8596   -3.6856 H   0  0  0  0  0  0  0  0  0  0  0  0
    3.5248   11.5106   -2.9194 H   0  0  0  0  0  0  0  0  0  0  0  0
    3.0186   10.6742   -4.4263 H   0  0  0  0  0  0  0  0  0  0  0  0
    3.2660   12.4534   -4.4263 H   0  0  0  0  0  0  0  0  0  0  0  0
    0.3888   10.7533   -5.0479 H   0  0  0  0  0  0  0  0  0  0  0  0
    1.3214    9.6990   -3.8427 H   0  0  0  0  0  0  0  0  0  0  0  0
   -1.4298   10.9205   -3.4872 H   0  0  0  0  0  0  0  0  0  0  0  0
   -0.9789    9.1753   -3.6203 H   0  0  0  0  0  0  0  0  0  0  0  0
    0.7214    8.8396   -0.3837 H   0  0  0  0  0  0  0  0  0  0  0  0
    0.2514    8.0243   -1.9138 H   0  0  0  0  0  0  0  0  0  0  0  0
    1.5724    9.2415   -1.9138 H   0  0  0  0  0  0  0  0  0  0  0  0
  1  2  1  0
  2  3  1  0
  3  4  1  0
  4  5  1  0
  5  6  1  0
  6  7  1  0
  7  8  1  0
  7  9  1  0
  2 10  1  0
 10 11  1  0
 11 12  1  0
 12 13  1  0
 13 14  1  1
 13 15  1  0
 15 16  1  0
 16 17  1  0
 17 18  2  0
 18 19  1  0
 19 20  1  0
 20 21  1  0
 21 22  1  0
 22 23  1  0
 22 24  1  0
 24 25  1  0
 24 26  1  0
 19 27  1  0
 27 28  1  1
 27 29  1  0
 29 30  1  0
 30 31  1  0
 31 32  1  6
  7  5  1  0
 31 10  1  0
 31 13  1  0
 27 15  1  0
 24 18  1  0
  1 33  1  0
  1 34  1  0
  1 35  1  0
  2 36  1  1
  3 37  1  0
  3 38  1  0
  4 39  1  0
  4 40  1  0
  5 41  1  1
  8 42  1  0
  8 43  1  0
  8 44  1  0
  9 45  1  0
  9 46  1  0
  9 47  1  0
 10 48  1  6
 11 49  1  0
 11 50  1  0
 12 51  1  0
 12 52  1  0
 14 53  1  0
 14 54  1  0
 14 55  1  0
 15 56  1  1
 16 57  1  0
 16 58  1  0
 17 59  1  0
 19 60  1  6
 20 61  1  0
 20 62  1  0
 21 63  1  0
 21 64  1  0
 22 65  1  6
 23 66  1  0
 25 67  1  0
 25 68  1  0
 25 69  1  0
 26 70  1  0
 26 71  1  0
 26 72  1  0
 28 73  1  0
 28 74  1  0
 28 75  1  0
 29 76  1  0
 29 77  1  0
 30 78  1  0
 30 79  1  0
 32 80  1  0
 32 81  1  0
 32 82  1  0
M  END
>  <meeko>  (13) 
{"is_sidechain": [false], "intermolecular_energy": 2.731, "internal_energy": -0.839}

$$$$
EPH_relaxed_0001_pdb2pqr_Repair_20_r2_0001_out
     RDKit          3D

 82 86  0  0  0  0  0  0  0  0999 V2000
    0.1840    9.8290   -4.5510 C   0  0  0  0  0  0  0  0  0  0  0  0
    1.2630   10.5650   -3.7520 C   0  0  2  0  0  0  0  0  0  0  0  0
    1.7300    9.7570   -2.5250 C   0  0  0  0  0  0  0  0  0  0  0  0
    0.7450    8.6680   -2.0940 C   0  0  0  0  0  0  0  0  0  0  0  0
   -0.1260    9.1250   -0.9630 C   0  0  2  0  0  0  0  0  0  0  0  0
   -0.7170    8.0680   -0.1960 O   0  0  0  0  0  0  0  0  0  0  0  0
   -1.6280    8.9090   -0.9220 C   0  0  0  0  0  0  0  0  0  0  0  0
   -2.3460    8.2120   -2.0350 C   0  0  0  0  0  0  0  0  0  0  0  0
   -2.4550    9.7980   -0.0470 C   0  0  0  0  0  0  0  0  0  0  0  0
    0.7440   11.9280   -3.3110 C   0  0  1  0  0  0  0  0  0  0  0  0
   -0.7620   11.9010   -2.9360 C   0  0  0  0  0  0  0  0  0  0  0  0
   -0.9500   12.9020   -1.7670 C   0  0  0  0  0  0  0  0  0  0  0  0
    0.3690   13.7100   -1.7290 C   0  0  1  0  0  0  0  0  0  0  0  0
    0.2110   14.7890   -2.8460 C   0  0  0  0  0  0  0  0  0  0  0  0
    0.7470   14.3520   -0.3550 C   0  0  2  0  0  0  0  0  0  0  0  0
   -0.2480   15.4010    0.1700 C   0  0  0  0  0  0  0  0  0  0  0  0
    0.0300   16.8080   -0.2450 C   0  0  0  0  0  0  0  0  0  0  0  0
    1.1870   17.2550   -0.7690 C   0  0  0  0  0  0  0  0  0  0  0  0
    2.4030   16.3280   -0.8990 C   0  0  1  0  0  0  0  0  0  0  0  0
    3.6690   17.0590   -0.3830 C   0  0  0  0  0  0  0  0  0  0  0  0
    3.8870   18.4060   -1.0660 C   0  0  0  0  0  0  0  0  0  0  0  0
    2.6810   19.3210   -0.8650 C   0  0  2  0  0  0  0  0  0  0  0  0
    2.5860   19.6600    0.5220 O   0  0  0  0  0  0  0  0  0  0  0  0
    1.3440   18.6860   -1.3400 C   0  0  0  0  0  0  0  0  0  0  0  0
    1.3310   18.5960   -2.8860 C   0  0  0  0  0  0  0  0  0  0  0  0
    0.1920   19.6510   -0.9510 C   0  0  0  0  0  0  0  0  0  0  0  0
    2.2380   14.8770   -0.2730 C   0  0  1  0  0  0  0  0  0  0  0  0
    2.6180   14.9030    1.2390 C   0  0  0  0  0  0  0  0  0  0  0  0
    3.2560   13.8980   -0.9690 C   0  0  0  0  0  0  0  0  0  0  0  0
    2.7800   13.2020   -2.2580 C   0  0  0  0  0  0  0  0  0  0  0  0
    1.3990   12.5690   -2.0620 C   0  0  2  0  0  0  0  0  0  0  0  0
    1.5320   11.4630   -0.9600 C   0  0  0  0  0  0  0  0  0  0  0  0
   -0.5215    9.3478   -3.8577 H   0  0  0  0  0  0  0  0  0  0  0  0
   -0.3570   10.5472   -5.1847 H   0  0  0  0  0  0  0  0  0  0  0  0
    0.6553    9.0633   -5.1847 H   0  0  0  0  0  0  0  0  0  0  0  0
    2.1331   10.6943   -4.4125 H   0  0  0  0  0  0  0  0  0  0  0  0
    2.6906    9.2796   -2.7687 H   0  0  0  0  0  0  0  0  0  0  0  0
    1.8135   10.4647   -1.6870 H   0  0  0  0  0  0  0  0  0  0  0  0
    0.1076    8.4043   -2.9509 H   0  0  0  0  0  0  0  0  0  0  0  0
    1.3240    7.7978   -1.7512 H   0  0  0  0  0  0  0  0  0  0  0  0
    0.4949   10.0212   -0.8174 H   0  0  0  0  0  0  0  0  0  0  0  0
   -3.0753    7.5041   -1.6143 H   0  0  0  0  0  0  0  0  0  0  0  0
   -2.8708    8.9543   -2.6544 H   0  0  0  0  0  0  0  0  0  0  0  0
   -1.6196    7.6654   -2.6544 H   0  0  0  0  0  0  0  0  0  0  0  0
   -2.2446    9.5719    1.0087 H   0  0  0  0  0  0  0  0  0  0  0  0
   -2.2065   10.8495   -0.2533 H   0  0  0  0  0  0  0  0  0  0  0  0
   -3.5217    9.6260   -0.2533 H   0  0  0  0  0  0  0  0  0  0  0  0
    0.9884   12.5168   -4.2074 H   0  0  0  0  0  0  0  0  0  0  0  0
   -1.3726   12.2067   -3.7984 H   0  0  0  0  0  0  0  0  0  0  0  0
   -1.0781   10.8887   -2.6438 H   0  0  0  0  0  0  0  0  0  0  0  0
   -1.8064   13.5654   -1.9578 H   0  0  0  0  0  0  0  0  0  0  0  0
   -1.1562   12.3950   -0.8128 H   0  0  0  0  0  0  0  0  0  0  0  0
    0.0664   15.7767   -2.3839 H   0  0  0  0  0  0  0  0  0  0  0  0
    1.1163   14.8054   -3.4706 H   0  0  0  0  0  0  0  0  0  0  0  0
   -0.6610   14.5452   -3.4706 H   0  0  0  0  0  0  0  0  0  0  0  0
    0.6715   13.4976    0.3337 H   0  0  0  0  0  0  0  0  0  0  0  0
   -1.2502   15.1310   -0.1942 H   0  0  0  0  0  0  0  0  0  0  0  0
   -0.1580   15.3838    1.2662 H   0  0  0  0  0  0  0  0  0  0  0  0
   -0.7788   17.5415   -0.1114 H   0  0  0  0  0  0  0  0  0  0  0  0
    2.5083   16.1132   -1.9727 H   0  0  0  0  0  0  0  0  0  0  0  0
    3.5634   17.2255    0.6992 H   0  0  0  0  0  0  0  0  0  0  0  0
    4.5375   16.4242   -0.6125 H   0  0  0  0  0  0  0  0  0  0  0  0
    4.7790   18.8867   -0.6378 H   0  0  0  0  0  0  0  0  0  0  0  0
    4.0225   18.2353   -2.1442 H   0  0  0  0  0  0  0  0  0  0  0  0
    2.8399   20.2168   -1.4834 H   0  0  0  0  0  0  0  0  0  0  0  0
    3.4840   19.8570    0.8390 H   0  0  0  0  0  0  0  0  0  0  0  0
    1.1799   17.5500   -3.1911 H   0  0  0  0  0  0  0  0  0  0  0  0
    0.5130   19.2154   -3.2825 H   0  0  0  0  0  0  0  0  0  0  0  0
    2.2908   18.9586   -3.2825 H   0  0  0  0  0  0  0  0  0  0  0  0
    0.1191   19.7120    0.1449 H   0  0  0  0  0  0  0  0  0  0  0  0
    0.3970   20.6509   -1.3611 H   0  0  0  0  0  0  0  0  0  0  0  0
   -0.7565   19.2739   -1.3611 H   0  0  0  0  0  0  0  0  0  0  0  0
    1.7040   14.8405    1.8479 H   0  0  0  0  0  0  0  0  0  0  0  0
    3.2703   14.0474    1.4679 H   0  0  0  0  0  0  0  0  0  0  0  0
    3.1477   15.8395    1.4679 H   0  0  0  0  0  0  0  0  0  0  0  0
    4.1578   14.4770   -1.2171 H   0  0  0  0  0  0  0  0  0  0  0  0
    3.4145   13.0853   -0.2449 H   0  0  0  0  0  0  0  0  0  0  0  0
    2.7239   13.9442   -3.0679 H   0  0  0  0  0  0  0  0  0  0  0  0
    3.4969   12.4074   -2.5125 H   0  0  0  0  0  0  0  0  0  0  0  0
    1.4760   11.9283    0.0351 H   0  0  0  0  0  0  0  0  0  0  0  0
    0.7149   10.7349   -1.0708 H   0  0  0  0  0  0  0  0  0  0  0  0
    2.4984   10.9494   -1.0708 H   0  0  0  0  0  0  0  0  0  0  0  0
  1  2  1  0
  2  3  1  0
  3  4  1  0
  4  5  1  0
  5  6  1  0
  6  7  1  0
  7  8  1  0
  7  9  1  0
  2 10  1  0
 10 11  1  0
 11 12  1  0
 12 13  1  0
 13 14  1  6
 13 15  1  0
 15 16  1  0
 16 17  1  0
 17 18  2  0
 18 19  1  0
 19 20  1  0
 20 21  1  0
 21 22  1  0
 22 23  1  0
 22 24  1  0
 24 25  1  0
 24 26  1  0
 19 27  1  0
 27 28  1  1
 27 29  1  0
 29 30  1  0
 30 31  1  0
 31 32  1  1
  7  5  1  0
 31 10  1  0
 31 13  1  0
 27 15  1  0
 24 18  1  0
  1 33  1  0
  1 34  1  0
  1 35  1  0
  2 36  1  6
  3 37  1  0
  3 38  1  0
  4 39  1  0
  4 40  1  0
  5 41  1  1
  8 42  1  0
  8 43  1  0
  8 44  1  0
  9 45  1  0
  9 46  1  0
  9 47  1  0
 10 48  1  6
 11 49  1  0
 11 50  1  0
 12 51  1  0
 12 52  1  0
 14 53  1  0
 14 54  1  0
 14 55  1  0
 15 56  1  1
 16 57  1  0
 16 58  1  0
 17 59  1  0
 19 60  1  6
 20 61  1  0
 20 62  1  0
 21 63  1  0
 21 64  1  0
 22 65  1  6
 23 66  1  0
 25 67  1  0
 25 68  1  0
 25 69  1  0
 26 70  1  0
 26 71  1  0
 26 72  1  0
 28 73  1  0
 28 74  1  0
 28 75  1  0
 29 76  1  0
 29 77  1  0
 30 78  1  0
 30 79  1  0
 32 80  1  0
 32 81  1  0
 32 82  1  0
M  END
>  <meeko>  (14) 
{"is_sidechain": [false], "intermolecular_energy": 2.731, "internal_energy": -0.839}

$$$$
EPH_relaxed_0001_pdb2pqr_Repair_20_r2_0001_out
     RDKit          3D

 82 86  0  0  0  0  0  0  0  0999 V2000
   -1.7350   14.8050    0.3760 C   0  0  0  0  0  0  0  0  0  0  0  0
   -0.3760   15.5050    0.2820 C   0  0  2  0  0  0  0  0  0  0  0  0
   -0.3580   16.5920   -0.8110 C   0  0  0  0  0  0  0  0  0  0  0  0
   -0.0090   17.9870   -0.2860 C   0  0  0  0  0  0  0  0  0  0  0  0
    1.4500   18.1110    0.0330 C   0  0  2  0  0  0  0  0  0  0  0  0
    2.0800   19.2880   -0.4900 O   0  0  0  0  0  0  0  0  0  0  0  0
    2.5450   18.0340   -1.0150 C   0  0  0  0  0  0  0  0  0  0  0  0
    2.2270   17.8250   -2.4620 C   0  0  0  0  0  0  0  0  0  0  0  0
    3.9310   17.6740   -0.5770 C   0  0  0  0  0  0  0  0  0  0  0  0
    0.7200   14.4800    0.0160 C   0  0  1  0  0  0  0  0  0  0  0  0
    0.8560   13.4400    1.1600 C   0  0  0  0  0  0  0  0  0  0  0  0
    1.2390   12.0920    0.4960 C   0  0  0  0  0  0  0  0  0  0  0  0
    1.6330   12.4680   -0.9510 C   0  0  1  0  0  0  0  0  0  0  0  0
    3.1040   12.9790   -0.8460 C   0  0  0  0  0  0  0  0  0  0  0  0
    1.4890   11.3390   -2.0220 C   0  0  2  0  0  0  0  0  0  0  0  0
    2.3790   10.1050   -1.7930 C   0  0  0  0  0  0  0  0  0  0  0  0
    3.7230   10.1590   -2.4390 C   0  0  0  0  0  0  0  0  0  0  0  0
    4.0930   11.0220   -3.4040 C   0  0  0  0  0  0  0  0  0  0  0  0
    3.0840   12.0050   -4.0110 C   0  0  1  0  0  0  0  0  0  0  0  0
    3.2080   11.9870   -5.5570 C   0  0  0  0  0  0  0  0  0  0  0  0
    4.6350   12.2480   -6.0320 C   0  0  0  0  0  0  0  0  0  0  0  0
    5.5990   11.2160   -5.4540 C   0  0  2  0  0  0  0  0  0  0  0  0
    5.2900    9.9340   -6.0100 O   0  0  0  0  0  0  0  0  0  0  0  0
    5.5550   11.1360   -3.9020 C   0  0  0  0  0  0  0  0  0  0  0  0
    6.1750   12.4200   -3.2970 C   0  0  0  0  0  0  0  0  0  0  0  0
    6.4680    9.9620   -3.4580 C   0  0  0  0  0  0  0  0  0  0  0  0
    1.5810   11.8480   -3.5180 C   0  0  1  0  0  0  0  0  0  0  0  0
    0.8410   10.7910   -4.3940 C   0  0  0  0  0  0  0  0  0  0  0  0
    0.8240   13.2110   -3.7330 C   0  0  0  0  0  0  0  0  0  0  0  0
    0.9050   14.2390   -2.5890 C   0  0  0  0  0  0  0  0  0  0  0  0
    0.5700   13.5890   -1.2430 C   0  0  2  0  0  0  0  0  0  0  0  0
   -0.9120   13.0860   -1.3110 C   0  0  0  0  0  0  0  0  0  0  0  0
   -2.0038   14.6666    1.4336 H   0  0  0  0  0  0  0  0  0  0  0  0
   -2.4999   15.4213   -0.1191 H   0  0  0  0  0  0  0  0  0  0  0  0
   -1.6774   13.8244   -0.1191 H   0  0  0  0  0  0  0  0  0  0  0  0
   -0.1926   16.0026    1.2457 H   0  0  0  0  0  0  0  0  0  0  0  0
    0.3873   16.3098   -1.5692 H   0  0  0  0  0  0  0  0  0  0  0  0
   -1.3759   16.6494   -1.2240 H   0  0  0  0  0  0  0  0  0  0  0  0
   -0.2708   18.7318   -1.0520 H   0  0  0  0  0  0  0  0  0  0  0  0
   -0.5778   18.1567    0.6401 H   0  0  0  0  0  0  0  0  0  0  0  0
    1.3083   17.5912    0.9920 H   0  0  0  0  0  0  0  0  0  0  0  0
    1.3109   17.2229   -2.5528 H   0  0  0  0  0  0  0  0  0  0  0  0
    2.0749   18.7998   -2.9485 H   0  0  0  0  0  0  0  0  0  0  0  0
    3.0614   17.2987   -2.9485 H   0  0  0  0  0  0  0  0  0  0  0  0
    3.9768   17.6621    0.5220 H   0  0  0  0  0  0  0  0  0  0  0  0
    4.1914   16.6784   -0.9656 H   0  0  0  0  0  0  0  0  0  0  0  0
    4.6430   18.4170   -0.9656 H   0  0  0  0  0  0  0  0  0  0  0  0
    1.5799   15.1559   -0.1011 H   0  0  0  0  0  0  0  0  0  0  0  0
    1.6413   13.7520    1.8642 H   0  0  0  0  0  0  0  0  0  0  0  0
   -0.0835   13.3491    1.7249 H   0  0  0  0  0  0  0  0  0  0  0  0
    2.0867   11.6275    1.0210 H   0  0  0  0  0  0  0  0  0  0  0  0
    0.4163   11.3626    0.5281 H   0  0  0  0  0  0  0  0  0  0  0  0
    3.3837   13.0762    0.2134 H   0  0  0  0  0  0  0  0  0  0  0  0
    3.7773   12.2621   -1.3387 H   0  0  0  0  0  0  0  0  0  0  0  0
    3.1878   13.9589   -1.3387 H   0  0  0  0  0  0  0  0  0  0  0  0
    0.4558   10.9959   -1.8647 H   0  0  0  0  0  0  0  0  0  0  0  0
    2.5274    9.9895   -0.7092 H   0  0  0  0  0  0  0  0  0  0  0  0
    1.8517    9.2592   -2.2585 H   0  0  0  0  0  0  0  0  0  0  0  0
    4.4751    9.4323   -2.0980 H   0  0  0  0  0  0  0  0  0  0  0  0
    3.3587   12.9983   -3.6264 H   0  0  0  0  0  0  0  0  0  0  0  0
    2.8885   11.0009   -5.9251 H   0  0  0  0  0  0  0  0  0  0  0  0
    2.5715   12.7921   -5.9528 H   0  0  0  0  0  0  0  0  0  0  0  0
    4.6647   12.1930   -7.1302 H   0  0  0  0  0  0  0  0  0  0  0  0
    4.9424   13.2468   -5.6887 H   0  0  0  0  0  0  0  0  0  0  0  0
    6.6180   11.5312   -5.7227 H   0  0  0  0  0  0  0  0  0  0  0  0
    4.9870   10.0750   -6.9230 H   0  0  0  0  0  0  0  0  0  0  0  0
    6.1456   12.3592   -2.1991 H   0  0  0  0  0  0  0  0  0  0  0  0
    7.2186   12.5158   -3.6311 H   0  0  0  0  0  0  0  0  0  0  0  0
    5.6011   13.2969   -3.6311 H   0  0  0  0  0  0  0  0  0  0  0  0
    6.5016    9.9188   -2.3594 H   0  0  0  0  0  0  0  0  0  0  0  0
    6.0658    9.0162   -3.8500 H   0  0  0  0  0  0  0  0  0  0  0  0
    7.4837   10.1189   -3.8500 H   0  0  0  0  0  0  0  0  0  0  0  0
    0.3329   10.0653   -3.7419 H   0  0  0  0  0  0  0  0  0  0  0  0
    0.0983   11.2962   -5.0290 H   0  0  0  0  0  0  0  0  0  0  0  0
    1.5698   10.2660   -5.0290 H   0  0  0  0  0  0  0  0  0  0  0  0
    1.2397   13.6837   -4.6351 H   0  0  0  0  0  0  0  0  0  0  0  0
   -0.2401   12.9411   -3.8023 H   0  0  0  0  0  0  0  0  0  0  0  0
    1.9244   14.6502   -2.5462 H   0  0  0  0  0  0  0  0  0  0  0  0
    0.1751   15.0386   -2.7837 H   0  0  0  0  0  0  0  0  0  0  0  0
   -1.3015   12.9538   -0.2908 H   0  0  0  0  0  0  0  0  0  0  0  0
   -1.5262   13.8260   -1.8450 H   0  0  0  0  0  0  0  0  0  0  0  0
   -0.9489   12.1250   -1.8450 H   0  0  0  0  0  0  0  0  0  0  0  0
  1  2  1  0
  2  3  1  0
  3  4  1  0
  4  5  1  0
  5  6  1  0
  6  7  1  0
  7  8  1  0
  7  9  1  0
  2 10  1  0
 10 11  1  0
 11 12  1  0
 12 13  1  0
 13 14  1  1
 13 15  1  0
 15 16  1  0
 16 17  1  0
 17 18  2  0
 18 19  1  0
 19 20  1  0
 20 21  1  0
 21 22  1  0
 22 23  1  0
 22 24  1  0
 24 25  1  0
 24 26  1  0
 19 27  1  0
 27 28  1  6
 27 29  1  0
 29 30  1  0
 30 31  1  0
 31 32  1  6
  7  5  1  0
 31 10  1  0
 31 13  1  0
 27 15  1  0
 24 18  1  0
  1 33  1  0
  1 34  1  0
  1 35  1  0
  2 36  1  1
  3 37  1  0
  3 38  1  0
  4 39  1  0
  4 40  1  0
  5 41  1  1
  8 42  1  0
  8 43  1  0
  8 44  1  0
  9 45  1  0
  9 46  1  0
  9 47  1  0
 10 48  1  6
 11 49  1  0
 11 50  1  0
 12 51  1  0
 12 52  1  0
 14 53  1  0
 14 54  1  0
 14 55  1  0
 15 56  1  6
 16 57  1  0
 16 58  1  0
 17 59  1  0
 19 60  1  1
 20 61  1  0
 20 62  1  0
 21 63  1  0
 21 64  1  0
 22 65  1  1
 23 66  1  0
 25 67  1  0
 25 68  1  0
 25 69  1  0
 26 70  1  0
 26 71  1  0
 26 72  1  0
 28 73  1  0
 28 74  1  0
 28 75  1  0
 29 76  1  0
 29 77  1  0
 30 78  1  0
 30 79  1  0
 32 80  1  0
 32 81  1  0
 32 82  1  0
M  END
>  <meeko>  (15) 
{"is_sidechain": [false], "intermolecular_energy": 2.731, "internal_energy": -0.839}

$$$$
EPH_relaxed_0001_pdb2pqr_Repair_20_r2_0001_out
     RDKit          3D

 82 86  0  0  0  0  0  0  0  0999 V2000
   -2.4670    7.7030   -0.1040 C   0  0  0  0  0  0  0  0  0  0  0  0
   -3.0500    9.1170   -0.0380 C   0  0  2  0  0  0  0  0  0  0  0  0
   -4.5550    9.1420   -0.3740 C   0  0  0  0  0  0  0  0  0  0  0  0
   -5.1990    7.7530   -0.4130 C   0  0  0  0  0  0  0  0  0  0  0  0
   -5.8530    7.4830   -1.7340 C   0  0  2  0  0  0  0  0  0  0  0  0
   -6.7980    8.4780   -2.1490 O   0  0  0  0  0  0  0  0  0  0  0  0
   -7.3300    7.1690   -1.8880 C   0  0  0  0  0  0  0  0  0  0  0  0
   -8.2420    7.1080   -0.7030 C   0  0  0  0  0  0  0  0  0  0  0  0
   -7.7830    6.4460   -3.1170 C   0  0  0  0  0  0  0  0  0  0  0  0
   -2.2900   10.0370   -0.9870 C   0  0  1  0  0  0  0  0  0  0  0  0
   -2.9490   11.4370   -1.1180 C   0  0  0  0  0  0  0  0  0  0  0  0
   -1.7960   12.4590   -1.2880 C   0  0  0  0  0  0  0  0  0  0  0  0
   -0.5480   11.5950   -1.5820 C   0  0  1  0  0  0  0  0  0  0  0  0
   -0.6420   11.2580   -3.1030 C   0  0  0  0  0  0  0  0  0  0  0  0
    0.8340   12.2290   -1.2160 C   0  0  2  0  0  0  0  0  0  0  0  0
    1.1860   13.5140   -1.9850 C   0  0  0  0  0  0  0  0  0  0  0  0
    1.9350   13.3090   -3.2600 C   0  0  0  0  0  0  0  0  0  0  0  0
    2.5570   12.1740   -3.6280 C   0  0  0  0  0  0  0  0  0  0  0  0
    2.6280   10.9710   -2.6780 C   0  0  1  0  0  0  0  0  0  0  0  0
    4.0770   10.4160   -2.6540 C   0  0  0  0  0  0  0  0  0  0  0  0
    4.6020   10.0900   -4.0490 C   0  0  0  0  0  0  0  0  0  0  0  0
    4.5690   11.3240   -4.9460 C   0  0  2  0  0  0  0  0  0  0  0  0
    5.5100   12.2810   -4.4490 O   0  0  0  0  0  0  0  0  0  0  0  0
    3.1610   11.9760   -5.0400 C   0  0  0  0  0  0  0  0  0  0  0  0
    2.2150   11.0560   -5.8500 C   0  0  0  0  0  0  0  0  0  0  0  0
    3.2970   13.2880   -5.8590 C   0  0  0  0  0  0  0  0  0  0  0  0
    2.0390   11.2030   -1.2210 C   0  0  1  0  0  0  0  0  0  0  0  0
    3.1380   11.8040   -0.2920 C   0  0  0  0  0  0  0  0  0  0  0  0
    1.6440    9.8120   -0.5980 C   0  0  0  0  0  0  0  0  0  0  0  0
    0.2230    9.2950   -0.8980 C   0  0  0  0  0  0  0  0  0  0  0  0
   -0.8240   10.3790   -0.6240 C   0  0  2  0  0  0  0  0  0  0  0  0
   -0.7670   10.7230    0.9040 C   0  0  0  0  0  0  0  0  0  0  0  0
   -2.3103    7.3230    0.9163 H   0  0  0  0  0  0  0  0  0  0  0  0
   -3.1662    7.0426   -0.6379 H   0  0  0  0  0  0  0  0  0  0  0  0
   -1.5055    7.7273   -0.6379 H   0  0  0  0  0  0  0  0  0  0  0  0
   -2.9369    9.4731    0.9966 H   0  0  0  0  0  0  0  0  0  0  0  0
   -5.0714    9.7432    0.3888 H   0  0  0  0  0  0  0  0  0  0  0  0
   -4.6527    9.5707   -1.3823 H   0  0  0  0  0  0  0  0  0  0  0  0
   -4.4217    6.9945   -0.2382 H   0  0  0  0  0  0  0  0  0  0  0  0
   -5.9726    7.7113    0.3679 H   0  0  0  0  0  0  0  0  0  0  0  0
   -4.9487    6.9784   -2.1050 H   0  0  0  0  0  0  0  0  0  0  0  0
   -7.6461    7.1479    0.2207 H   0  0  0  0  0  0  0  0  0  0  0  0
   -8.9351    7.9618   -0.7294 H   0  0  0  0  0  0  0  0  0  0  0  0
   -8.8152    6.1695   -0.7294 H   0  0  0  0  0  0  0  0  0  0  0  0
   -8.3463    5.5469   -2.8268 H   0  0  0  0  0  0  0  0  0  0  0  0
   -8.4289    7.1066   -3.7139 H   0  0  0  0  0  0  0  0  0  0  0  0
   -6.9068    6.1529   -3.7139 H   0  0  0  0  0  0  0  0  0  0  0  0
   -2.3182    9.4238   -1.8998 H   0  0  0  0  0  0  0  0  0  0  0  0
   -3.6113   11.4634   -1.9959 H   0  0  0  0  0  0  0  0  0  0  0  0
   -3.5579   11.6717   -0.2324 H   0  0  0  0  0  0  0  0  0  0  0  0
   -2.0022   13.1410   -2.1261 H   0  0  0  0  0  0  0  0  0  0  0  0
   -1.6648   13.0913   -0.3975 H   0  0  0  0  0  0  0  0  0  0  0  0
   -0.9356   10.2053   -3.2278 H   0  0  0  0  0  0  0  0  0  0  0  0
   -1.3934   11.9069   -3.5766 H   0  0  0  0  0  0  0  0  0  0  0  0
    0.3368   11.4243   -3.5766 H   0  0  0  0  0  0  0  0  0  0  0  0
    0.6830   12.5385   -0.1713 H   0  0  0  0  0  0  0  0  0  0  0  0
    0.2473   14.0360   -2.2224 H   0  0  0  0  0  0  0  0  0  0  0  0
    1.8554   14.0884   -1.3277 H   0  0  0  0  0  0  0  0  0  0  0  0
    1.9824   14.1579   -3.9579 H   0  0  0  0  0  0  0  0  0  0  0  0
    1.9452   10.2146   -3.0924 H   0  0  0  0  0  0  0  0  0  0  0  0
    4.7355   11.1691   -2.1965 H   0  0  0  0  0  0  0  0  0  0  0  0
    4.0669    9.4812   -2.0743 H   0  0  0  0  0  0  0  0  0  0  0  0
    5.6386    9.7309   -3.9687 H   0  0  0  0  0  0  0  0  0  0  0  0
    3.9600    9.3153   -4.4937 H   0  0  0  0  0  0  0  0  0  0  0  0
    4.8326   10.9990   -5.9633 H   0  0  0  0  0  0  0  0  0  0  0  0
    6.2170   12.3690   -5.1110 H   0  0  0  0  0  0  0  0  0  0  0  0
    1.6020   10.4599   -5.1580 H   0  0  0  0  0  0  0  0  0  0  0  0
    1.5593   11.6711   -6.4837 H   0  0  0  0  0  0  0  0  0  0  0  0
    2.8116   10.3834   -6.4837 H   0  0  0  0  0  0  0  0  0  0  0  0
    3.3855   14.1420   -5.1713 H   0  0  0  0  0  0  0  0  0  0  0  0
    4.1943   13.2332   -6.4930 H   0  0  0  0  0  0  0  0  0  0  0  0
    2.4076   13.4184   -6.4930 H   0  0  0  0  0  0  0  0  0  0  0  0
    2.8543   11.6489    0.7594 H   0  0  0  0  0  0  0  0  0  0  0  0
    4.0983   11.3055   -0.4901 H   0  0  0  0  0  0  0  0  0  0  0  0
    3.2365   12.8815   -0.4901 H   0  0  0  0  0  0  0  0  0  0  0  0
    2.3569    9.0639   -0.9750 H   0  0  0  0  0  0  0  0  0  0  0  0
    1.6706    9.9660    0.4908 H   0  0  0  0  0  0  0  0  0  0  0  0
    0.1642    8.9970   -1.9552 H   0  0  0  0  0  0  0  0  0  0  0  0
    0.0172    8.4351   -0.2436 H   0  0  0  0  0  0  0  0  0  0  0  0
   -0.9189    9.8060    1.4922 H   0  0  0  0  0  0  0  0  0  0  0  0
    0.2150   11.1554    1.1461 H   0  0  0  0  0  0  0  0  0  0  0  0
   -1.5571   11.4490    1.1461 H   0  0  0  0  0  0  0  0  0  0  0  0
  1  2  1  0
  2  3  1  0
  3  4  1  0
  4  5  1  0
  5  6  1  0
  6  7  1  0
  7  8  1  0
  7  9  1  0
  2 10  1  0
 10 11  1  0
 11 12  1  0
 12 13  1  0
 13 14  1  6
 13 15  1  0
 15 16  1  0
 16 17  1  0
 17 18  2  0
 18 19  1  0
 19 20  1  0
 20 21  1  0
 21 22  1  0
 22 23  1  0
 22 24  1  0
 24 25  1  0
 24 26  1  0
 19 27  1  0
 27 28  1  1
 27 29  1  0
 29 30  1  0
 30 31  1  0
 31 32  1  1
  7  5  1  0
 31 10  1  0
 31 13  1  0
 27 15  1  0
 24 18  1  0
  1 33  1  0
  1 34  1  0
  1 35  1  0
  2 36  1  1
  3 37  1  0
  3 38  1  0
  4 39  1  0
  4 40  1  0
  5 41  1  6
  8 42  1  0
  8 43  1  0
  8 44  1  0
  9 45  1  0
  9 46  1  0
  9 47  1  0
 10 48  1  6
 11 49  1  0
 11 50  1  0
 12 51  1  0
 12 52  1  0
 14 53  1  0
 14 54  1  0
 14 55  1  0
 15 56  1  1
 16 57  1  0
 16 58  1  0
 17 59  1  0
 19 60  1  6
 20 61  1  0
 20 62  1  0
 21 63  1  0
 21 64  1  0
 22 65  1  6
 23 66  1  0
 25 67  1  0
 25 68  1  0
 25 69  1  0
 26 70  1  0
 26 71  1  0
 26 72  1  0
 28 73  1  0
 28 74  1  0
 28 75  1  0
 29 76  1  0
 29 77  1  0
 30 78  1  0
 30 79  1  0
 32 80  1  0
 32 81  1  0
 32 82  1  0
M  END
>  <meeko>  (16) 
{"is_sidechain": [false], "intermolecular_energy": 2.731, "internal_energy": -0.839}

$$$$
EPH_relaxed_0001_pdb2pqr_Repair_20_r2_0001_out
     RDKit          3D

 82 86  0  0  0  0  0  0  0  0999 V2000
    0.0200   14.9630   -4.0920 C   0  0  0  0  0  0  0  0  0  0  0  0
    1.2000   14.0070   -4.2880 C   0  0  2  0  0  0  0  0  0  0  0  0
    1.8920   14.2100   -5.6500 C   0  0  0  0  0  0  0  0  0  0  0  0
    1.0130   14.9130   -6.6880 C   0  0  0  0  0  0  0  0  0  0  0  0
    1.6950   15.0080   -8.0200 C   0  0  2  0  0  0  0  0  0  0  0  0
    2.2190   16.3050   -8.3330 O   0  0  0  0  0  0  0  0  0  0  0  0
    1.1590   15.8280   -9.1780 C   0  0  0  0  0  0  0  0  0  0  0  0
   -0.1120   16.6090   -9.0590 C   0  0  0  0  0  0  0  0  0  0  0  0
    1.6030   15.4830  -10.5650 C   0  0  0  0  0  0  0  0  0  0  0  0
    0.7280   12.5640   -4.1530 C   0  0  1  0  0  0  0  0  0  0  0  0
    1.8410   11.5380   -4.4950 C   0  0  0  0  0  0  0  0  0  0  0  0
    1.6330   10.3230   -3.5540 C   0  0  0  0  0  0  0  0  0  0  0  0
    0.2290   10.5400   -2.9420 C   0  0  1  0  0  0  0  0  0  0  0  0
   -0.7660   10.0280   -4.0300 C   0  0  0  0  0  0  0  0  0  0  0  0
   -0.0320    9.8630   -1.5570 C   0  0  2  0  0  0  0  0  0  0  0  0
    0.0480    8.3270   -1.5550 C   0  0  0  0  0  0  0  0  0  0  0  0
   -1.2380    7.6200   -1.8270 C   0  0  0  0  0  0  0  0  0  0  0  0
   -2.4620    8.1790   -1.7820 C   0  0  0  0  0  0  0  0  0  0  0  0
   -2.6480    9.6340   -1.3340 C   0  0  1  0  0  0  0  0  0  0  0  0
   -3.8160    9.7180   -0.3170 C   0  0  0  0  0  0  0  0  0  0  0  0
   -5.1050    9.1040   -0.8540 C   0  0  0  0  0  0  0  0  0  0  0  0
   -4.8950    7.6410   -1.2340 C   0  0  2  0  0  0  0  0  0  0  0  0
   -4.6360    6.8890   -0.0440 O   0  0  0  0  0  0  0  0  0  0  0  0
   -3.7360    7.4310   -2.2480 C   0  0  0  0  0  0  0  0  0  0  0  0
   -4.1480    7.9890   -3.6320 C   0  0  0  0  0  0  0  0  0  0  0  0
   -3.5380    5.9030   -2.4370 C   0  0  0  0  0  0  0  0  0  0  0  0
   -1.3380   10.3750   -0.8220 C   0  0  1  0  0  0  0  0  0  0  0  0
   -1.1300   10.0980    0.6980 C   0  0  0  0  0  0  0  0  0  0  0  0
   -1.5360   11.9300   -0.9670 C   0  0  0  0  0  0  0  0  0  0  0  0
   -1.1470   12.5560   -2.3200 C   0  0  0  0  0  0  0  0  0  0  0  0
    0.2490   12.1000   -2.7550 C   0  0  2  0  0  0  0  0  0  0  0  0
    1.2750   12.6200   -1.6900 C   0  0  0  0  0  0  0  0  0  0  0  0
   -0.1594   15.1084   -3.0165 H   0  0  0  0  0  0  0  0  0  0  0  0
    0.2513   15.9316   -4.5593 H   0  0  0  0  0  0  0  0  0  0  0  0
   -0.8795   14.5358   -4.5593 H   0  0  0  0  0  0  0  0  0  0  0  0
    1.9402   14.2306   -3.5056 H   0  0  0  0  0  0  0  0  0  0  0  0
    2.7965   14.8161   -5.4931 H   0  0  0  0  0  0  0  0  0  0  0  0
    2.1207   13.2098   -6.0467 H   0  0  0  0  0  0  0  0  0  0  0  0
    0.0779   14.3458   -6.8060 H   0  0  0  0  0  0  0  0  0  0  0  0
    0.8126   15.9343   -6.3320 H   0  0  0  0  0  0  0  0  0  0  0  0
    2.0298   13.9626   -7.9493 H   0  0  0  0  0  0  0  0  0  0  0  0
   -0.3531   16.7572   -7.9960 H   0  0  0  0  0  0  0  0  0  0  0  0
    0.0117   17.5872   -9.5467 H   0  0  0  0  0  0  0  0  0  0  0  0
   -0.9288   16.0567   -9.5467 H   0  0  0  0  0  0  0  0  0  0  0  0
    2.4707   14.8088  -10.5152 H   0  0  0  0  0  0  0  0  0  0  0  0
    0.7812   14.9841  -11.0996 H   0  0  0  0  0  0  0  0  0  0  0  0
    1.8834   16.4025  -11.0996 H   0  0  0  0  0  0  0  0  0  0  0  0
   -0.1195   12.5805   -4.8541 H   0  0  0  0  0  0  0  0  0  0  0  0
    1.7559   11.2227   -5.5454 H   0  0  0  0  0  0  0  0  0  0  0  0
    2.8398   11.9779   -4.3576 H   0  0  0  0  0  0  0  0  0  0  0  0
    1.6679    9.3815   -4.1218 H   0  0  0  0  0  0  0  0  0  0  0  0
    2.4167   10.2513   -2.7855 H   0  0  0  0  0  0  0  0  0  0  0  0
   -1.6426    9.5769   -3.5420 H   0  0  0  0  0  0  0  0  0  0  0  0
   -1.0893   10.8717   -4.6574 H   0  0  0  0  0  0  0  0  0  0  0  0
   -0.2674    9.2745   -4.6574 H   0  0  0  0  0  0  0  0  0  0  0  0
    0.8265   10.2065   -0.9612 H   0  0  0  0  0  0  0  0  0  0  0  0
    0.7720    8.0236   -2.3256 H   0  0  0  0  0  0  0  0  0  0  0  0
    0.3428    8.0396   -0.5350 H   0  0  0  0  0  0  0  0  0  0  0  0
   -1.1810    6.5525   -2.0860 H   0  0  0  0  0  0  0  0  0  0  0  0
   -2.9024   10.2010   -2.2416 H   0  0  0  0  0  0  0  0  0  0  0  0
   -3.5252    9.1825    0.5988 H   0  0  0  0  0  0  0  0  0  0  0  0
   -4.0105   10.7825   -0.1193 H   0  0  0  0  0  0  0  0  0  0  0  0
   -5.8836    9.1666   -0.0795 H   0  0  0  0  0  0  0  0  0  0  0  0
   -5.4110    9.6598   -1.7526 H   0  0  0  0  0  0  0  0  0  0  0  0
   -5.8126    7.2942   -1.7317 H   0  0  0  0  0  0  0  0  0  0  0  0
   -3.7600    6.4780   -0.1410 H   0  0  0  0  0  0  0  0  0  0  0  0
   -4.7963    8.8670   -3.4951 H   0  0  0  0  0  0  0  0  0  0  0  0
   -3.2477    8.2817   -4.1921 H   0  0  0  0  0  0  0  0  0  0  0  0
   -4.6928    7.2147   -4.1921 H   0  0  0  0  0  0  0  0  0  0  0  0
   -3.4750    5.4169   -1.4523 H   0  0  0  0  0  0  0  0  0  0  0  0
   -4.3900    5.4893   -2.9963 H   0  0  0  0  0  0  0  0  0  0  0  0
   -2.6086    5.7201   -2.9963 H   0  0  0  0  0  0  0  0  0  0  0  0
   -1.6882   10.8414    1.2859 H   0  0  0  0  0  0  0  0  0  0  0  0
   -1.4957    9.0893    0.9403 H   0  0  0  0  0  0  0  0  0  0  0  0
   -0.0593   10.1679    0.9403 H   0  0  0  0  0  0  0  0  0  0  0  0
   -2.6001   12.1477   -0.7931 H   0  0  0  0  0  0  0  0  0  0  0  0
   -0.8485   12.3776   -0.2342 H   0  0  0  0  0  0  0  0  0  0  0  0
   -1.8790   12.2497   -3.0818 H   0  0  0  0  0  0  0  0  0  0  0  0
   -1.1397   13.6505   -2.2104 H   0  0  0  0  0  0  0  0  0  0  0  0
    0.8865   12.4231   -0.6799 H   0  0  0  0  0  0  0  0  0  0  0  0
    2.2353   12.0998   -1.8214 H   0  0  0  0  0  0  0  0  0  0  0  0
    1.4232   13.7020   -1.8214 H   0  0  0  0  0  0  0  0  0  0  0  0
  1  2  1  0
  2  3  1  0
  3  4  1  0
  4  5  1  0
  5  6  1  0
  6  7  1  0
  7  8  1  0
  7  9  1  0
  2 10  1  0
 10 11  1  0
 11 12  1  0
 12 13  1  0
 13 14  1  6
 13 15  1  0
 15 16  1  0
 16 17  1  0
 17 18  2  0
 18 19  1  0
 19 20  1  0
 20 21  1  0
 21 22  1  0
 22 23  1  0
 22 24  1  0
 24 25  1  0
 24 26  1  0
 19 27  1  0
 27 28  1  1
 27 29  1  0
 29 30  1  0
 30 31  1  0
 31 32  1  1
  7  5  1  0
 31 10  1  0
 31 13  1  0
 27 15  1  0
 24 18  1  0
  1 33  1  0
  1 34  1  0
  1 35  1  0
  2 36  1  1
  3 37  1  0
  3 38  1  0
  4 39  1  0
  4 40  1  0
  5 41  1  6
  8 42  1  0
  8 43  1  0
  8 44  1  0
  9 45  1  0
  9 46  1  0
  9 47  1  0
 10 48  1  6
 11 49  1  0
 11 50  1  0
 12 51  1  0
 12 52  1  0
 14 53  1  0
 14 54  1  0
 14 55  1  0
 15 56  1  1
 16 57  1  0
 16 58  1  0
 17 59  1  0
 19 60  1  6
 20 61  1  0
 20 62  1  0
 21 63  1  0
 21 64  1  0
 22 65  1  6
 23 66  1  0
 25 67  1  0
 25 68  1  0
 25 69  1  0
 26 70  1  0
 26 71  1  0
 26 72  1  0
 28 73  1  0
 28 74  1  0
 28 75  1  0
 29 76  1  0
 29 77  1  0
 30 78  1  0
 30 79  1  0
 32 80  1  0
 32 81  1  0
 32 82  1  0
M  END
>  <meeko>  (17) 
{"is_sidechain": [false], "intermolecular_energy": 2.731, "internal_energy": -0.839}

$$$$
