EPH_relaxed_0001_pdb2pqr_Repair_41_r2_0001_out
     RDKit          3D

 82 86  0  0  0  0  0  0  0  0999 V2000
   -1.5940    8.5670   -1.8160 C   0  0  0  0  0  0  0  0  0  0  0  0
   -2.0040    9.1500   -0.4610 C   0  0  2  0  0  0  0  0  0  0  0  0
   -3.4920    9.5510   -0.4270 C   0  0  0  0  0  0  0  0  0  0  0  0
   -4.4480    8.3620   -0.2940 C   0  0  0  0  0  0  0  0  0  0  0  0
   -5.0810    8.0100   -1.6060 C   0  0  2  0  0  0  0  0  0  0  0  0
   -6.3420    8.6460   -1.8510 O   0  0  0  0  0  0  0  0  0  0  0  0
   -6.3680    7.2150   -1.7260 C   0  0  0  0  0  0  0  0  0  0  0  0
   -7.0970    6.7220   -0.5160 C   0  0  0  0  0  0  0  0  0  0  0  0
   -6.6500    6.5020   -3.0120 C   0  0  0  0  0  0  0  0  0  0  0  0
   -1.1320   10.3550   -0.1280 C   0  0  1  0  0  0  0  0  0  0  0  0
   -0.0570   10.0360    0.9440 C   0  0  0  0  0  0  0  0  0  0  0  0
    1.1990   10.8700    0.5800 C   0  0  0  0  0  0  0  0  0  0  0  0
    0.7020   11.8800   -0.4800 C   0  0  1  0  0  0  0  0  0  0  0  0
    0.0270   13.0230    0.3400 C   0  0  0  0  0  0  0  0  0  0  0  0
    1.7830   12.4370   -1.4640 C   0  0  2  0  0  0  0  0  0  0  0  0
    2.9130   13.2450   -0.8030 C   0  0  0  0  0  0  0  0  0  0  0  0
    2.6650   14.7130   -0.6900 C   0  0  0  0  0  0  0  0  0  0  0  0
    1.7140   15.3990   -1.3510 C   0  0  0  0  0  0  0  0  0  0  0  0
    0.8270   14.7080   -2.3950 C   0  0  1  0  0  0  0  0  0  0  0  0
    0.7480   15.5880   -3.6710 C   0  0  0  0  0  0  0  0  0  0  0  0
    0.2940   17.0130   -3.3710 C   0  0  0  0  0  0  0  0  0  0  0  0
    1.2340   17.6860   -2.3730 C   0  0  2  0  0  0  0  0  0  0  0  0
    2.5120   17.8640   -2.9920 O   0  0  0  0  0  0  0  0  0  0  0  0
    1.4000   16.8850   -1.0520 C   0  0  0  0  0  0  0  0  0  0  0  0
    0.0850   16.9500   -0.2350 C   0  0  0  0  0  0  0  0  0  0  0  0
    2.4790   17.5990   -0.1940 C   0  0  0  0  0  0  0  0  0  0  0  0
    1.1880   13.1950   -2.7190 C   0  0  1  0  0  0  0  0  0  0  0  0
    2.2770   13.1340   -3.8340 C   0  0  0  0  0  0  0  0  0  0  0  0
   -0.0860   12.4760   -3.3040 C   0  0  0  0  0  0  0  0  0  0  0  0
   -1.0540   11.8430   -2.2870 C   0  0  0  0  0  0  0  0  0  0  0  0
   -0.2980   10.9690   -1.2810 C   0  0  2  0  0  0  0  0  0  0  0  0
    0.3740    9.7970   -2.0750 C   0  0  0  0  0  0  0  0  0  0  0  0
   -0.9678    7.6766   -1.6577 H   0  0  0  0  0  0  0  0  0  0  0  0
   -2.4945    8.2861   -2.3819 H   0  0  0  0  0  0  0  0  0  0  0  0
   -1.0251    9.3194   -2.3819 H   0  0  0  0  0  0  0  0  0  0  0  0
   -1.8569    8.3644    0.2948 H   0  0  0  0  0  0  0  0  0  0  0  0
   -3.6512   10.2219    0.4300 H   0  0  0  0  0  0  0  0  0  0  0  0
   -3.7156   10.0369   -1.3882 H   0  0  0  0  0  0  0  0  0  0  0  0
   -3.8854    7.4918    0.0752 H   0  0  0  0  0  0  0  0  0  0  0  0
   -5.2472    8.6416    0.4082 H   0  0  0  0  0  0  0  0  0  0  0  0
   -4.0946    7.8931   -2.0786 H   0  0  0  0  0  0  0  0  0  0  0  0
   -6.5809    7.0710    0.3905 H   0  0  0  0  0  0  0  0  0  0  0  0
   -8.1262    7.1102   -0.5245 H   0  0  0  0  0  0  0  0  0  0  0  0
   -7.1199    5.6223   -0.5245 H   0  0  0  0  0  0  0  0  0  0  0  0
   -7.0467    5.4990   -2.7958 H   0  0  0  0  0  0  0  0  0  0  0  0
   -7.3904    7.0719   -3.5925 H   0  0  0  0  0  0  0  0  0  0  0  0
   -5.7201    6.4112   -3.5925 H   0  0  0  0  0  0  0  0  0  0  0  0
   -1.9101   11.0634    0.1924 H   0  0  0  0  0  0  0  0  0  0  0  0
   -0.4225   10.3177    1.9425 H   0  0  0  0  0  0  0  0  0  0  0  0
    0.1747    8.9609    0.9633 H   0  0  0  0  0  0  0  0  0  0  0  0
    1.5865   11.3953    1.4654 H   0  0  0  0  0  0  0  0  0  0  0  0
    2.0221   10.2434    0.2059 H   0  0  0  0  0  0  0  0  0  0  0  0
    0.1455   12.8223    1.4150 H   0  0  0  0  0  0  0  0  0  0  0  0
    0.5032   13.9830    0.0915 H   0  0  0  0  0  0  0  0  0  0  0  0
   -1.0436   13.0696    0.0915 H   0  0  0  0  0  0  0  0  0  0  0  0
    2.2548   11.5175   -1.8407 H   0  0  0  0  0  0  0  0  0  0  0  0
    3.0672   12.8472    0.2109 H   0  0  0  0  0  0  0  0  0  0  0  0
    3.7899   13.1339   -1.4577 H   0  0  0  0  0  0  0  0  0  0  0  0
    3.3146   15.2822   -0.0088 H   0  0  0  0  0  0  0  0  0  0  0  0
   -0.1700   14.6220   -1.9382 H   0  0  0  0  0  0  0  0  0  0  0  0
    1.7443   15.6257   -4.1357 H   0  0  0  0  0  0  0  0  0  0  0  0
    0.0047   15.1352   -4.3437 H   0  0  0  0  0  0  0  0  0  0  0  0
    0.2863   17.5928   -4.3058 H   0  0  0  0  0  0  0  0  0  0  0  0
   -0.7146   16.9757   -2.9335 H   0  0  0  0  0  0  0  0  0  0  0  0
    0.7871   18.6530   -2.0989 H   0  0  0  0  0  0  0  0  0  0  0  0
    3.0280   17.0550   -2.8380 H   0  0  0  0  0  0  0  0  0  0  0  0
    0.3200   16.9384    0.8395 H   0  0  0  0  0  0  0  0  0  0  0  0
   -0.4549   17.8759   -0.4823 H   0  0  0  0  0  0  0  0  0  0  0  0
   -0.5436   16.0818   -0.4823 H   0  0  0  0  0  0  0  0  0  0  0  0
    2.2558   17.4513    0.8730 H   0  0  0  0  0  0  0  0  0  0  0  0
    3.4685   17.1768   -0.4235 H   0  0  0  0  0  0  0  0  0  0  0  0
    2.4772   18.6748   -0.4235 H   0  0  0  0  0  0  0  0  0  0  0  0
    3.2732   13.0782   -3.3709 H   0  0  0  0  0  0  0  0  0  0  0  0
    2.1127   12.2437   -4.4587 H   0  0  0  0  0  0  0  0  0  0  0  0
    2.2131   14.0371   -4.4587 H   0  0  0  0  0  0  0  0  0  0  0  0
   -0.6518   13.2205   -3.8832 H   0  0  0  0  0  0  0  0  0  0  0  0
    0.3041   11.6332   -3.8934 H   0  0  0  0  0  0  0  0  0  0  0  0
   -1.5800   12.6427   -1.7450 H   0  0  0  0  0  0  0  0  0  0  0  0
   -1.7709   11.2109   -2.8316 H   0  0  0  0  0  0  0  0  0  0  0  0
    0.7926    9.0669   -1.3667 H   0  0  0  0  0  0  0  0  0  0  0  0
   -0.3786    9.3039   -2.7078 H   0  0  0  0  0  0  0  0  0  0  0  0
    1.1797   10.1974   -2.7078 H   0  0  0  0  0  0  0  0  0  0  0  0
  1  2  1  0
  2  3  1  0
  3  4  1  0
  4  5  1  0
  5  6  1  0
  6  7  1  0
  7  8  1  0
  7  9  1  0
  2 10  1  0
 10 11  1  0
 11 12  1  0
 12 13  1  0
 13 14  1  1
 13 15  1  0
 15 16  1  0
 16 17  1  0
 17 18  2  0
 18 19  1  0
 19 20  1  0
 20 21  1  0
 21 22  1  0
 22 23  1  0
 22 24  1  0
 24 25  1  0
 24 26  1  0
 19 27  1  0
 27 28  1  6
 27 29  1  0
 29 30  1  0
 30 31  1  0
 31 32  1  6
  7  5  1  0
 31 10  1  0
 31 13  1  0
 27 15  1  0
 24 18  1  0
  1 33  1  0
  1 34  1  0
  1 35  1  0
  2 36  1  1
  3 37  1  0
  3 38  1  0
  4 39  1  0
  4 40  1  0
  5 41  1  6
  8 42  1  0
  8 43  1  0
  8 44  1  0
  9 45  1  0
  9 46  1  0
  9 47  1  0
 10 48  1  1
 11 49  1  0
 11 50  1  0
 12 51  1  0
 12 52  1  0
 14 53  1  0
 14 54  1  0
 14 55  1  0
 15 56  1  6
 16 57  1  0
 16 58  1  0
 17 59  1  0
 19 60  1  1
 20 61  1  0
 20 62  1  0
 21 63  1  0
 21 64  1  0
 22 65  1  1
 23 66  1  0
 25 67  1  0
 25 68  1  0
 25 69  1  0
 26 70  1  0
 26 71  1  0
 26 72  1  0
 28 73  1  0
 28 74  1  0
 28 75  1  0
 29 76  1  0
 29 77  1  0
 30 78  1  0
 30 79  1  0
 32 80  1  0
 32 81  1  0
 32 82  1  0
M  END
>  <meeko>  (1) 
{"is_sidechain": [false], "intermolecular_energy": 2.731, "internal_energy": -0.839}

$$$$
EPH_relaxed_0001_pdb2pqr_Repair_41_r2_0001_out
     RDKit          3D

 82 86  0  0  0  0  0  0  0  0999 V2000
    4.2500   17.5950   -0.6250 C   0  0  0  0  0  0  0  0  0  0  0  0
    2.8880   18.1630   -0.2150 C   0  0  2  0  0  0  0  0  0  0  0  0
    2.9390   18.8560    1.1620 C   0  0  0  0  0  0  0  0  0  0  0  0
    4.2470   18.6190    1.9220 C   0  0  0  0  0  0  0  0  0  0  0  0
    4.2190   19.2480    3.2830 C   0  0  2  0  0  0  0  0  0  0  0  0
    5.2680   20.1930    3.5270 O   0  0  0  0  0  0  0  0  0  0  0  0
    5.2820   19.0070    4.3380 C   0  0  0  0  0  0  0  0  0  0  0  0
    6.4490   18.1060    4.0780 C   0  0  0  0  0  0  0  0  0  0  0  0
    4.9350   19.2530    5.7730 C   0  0  0  0  0  0  0  0  0  0  0  0
    1.8440   17.0530   -0.2010 C   0  0  1  0  0  0  0  0  0  0  0  0
    0.4120   17.5750   -0.4890 C   0  0  0  0  0  0  0  0  0  0  0  0
   -0.3150   16.4670   -1.2940 C   0  0  0  0  0  0  0  0  0  0  0  0
    0.5950   15.2240   -1.1560 C   0  0  1  0  0  0  0  0  0  0  0  0
    0.2410   14.6200    0.2380 C   0  0  0  0  0  0  0  0  0  0  0  0
    0.4840   14.1570   -2.2940 C   0  0  2  0  0  0  0  0  0  0  0  0
   -0.8950   13.4900   -2.4290 C   0  0  0  0  0  0  0  0  0  0  0  0
   -1.0830   12.2450   -1.6270 C   0  0  0  0  0  0  0  0  0  0  0  0
   -0.0990   11.5270   -1.0540 C   0  0  0  0  0  0  0  0  0  0  0  0
    1.3740   11.8990   -1.2690 C   0  0  1  0  0  0  0  0  0  0  0  0
    2.1860   10.6210   -1.6080 C   0  0  0  0  0  0  0  0  0  0  0  0
    2.0070    9.5210   -0.5650 C   0  0  0  0  0  0  0  0  0  0  0  0
    0.5360    9.1390   -0.4220 C   0  0  2  0  0  0  0  0  0  0  0  0
    0.1000    8.5230   -1.6370 O   0  0  0  0  0  0  0  0  0  0  0  0
   -0.3810   10.3490   -0.0900 C   0  0  0  0  0  0  0  0  0  0  0  0
   -0.1080   10.8280    1.3570 C   0  0  0  0  0  0  0  0  0  0  0  0
   -1.8520    9.8520   -0.1130 C   0  0  0  0  0  0  0  0  0  0  0  0
    1.6480   13.0840   -2.2920 C   0  0  1  0  0  0  0  0  0  0  0  0
    1.7390   12.5240   -3.7440 C   0  0  0  0  0  0  0  0  0  0  0  0
    3.0510   13.7240   -1.9730 C   0  0  0  0  0  0  0  0  0  0  0  0
    3.0770   14.8550   -0.9280 C   0  0  0  0  0  0  0  0  0  0  0  0
    2.0090   15.9090   -1.2330 C   0  0  2  0  0  0  0  0  0  0  0  0
    2.3520   16.5510   -2.6210 C   0  0  0  0  0  0  0  0  0  0  0  0
    4.8323   17.3522    0.2761 H   0  0  0  0  0  0  0  0  0  0  0  0
    4.1023   16.6835   -1.2228 H   0  0  0  0  0  0  0  0  0  0  0  0
    4.7937   18.3414   -1.2228 H   0  0  0  0  0  0  0  0  0  0  0  0
    2.6100   18.9247   -0.9583 H   0  0  0  0  0  0  0  0  0  0  0  0
    2.8165   19.9386    1.0107 H   0  0  0  0  0  0  0  0  0  0  0  0
    2.1309   18.4232    1.7700 H   0  0  0  0  0  0  0  0  0  0  0  0
    4.4037   17.5359    2.0329 H   0  0  0  0  0  0  0  0  0  0  0  0
    5.0653   19.0788    1.3483 H   0  0  0  0  0  0  0  0  0  0  0  0
    3.1212   19.1866    3.3146 H   0  0  0  0  0  0  0  0  0  0  0  0
    6.8774   17.7753    5.0357 H   0  0  0  0  0  0  0  0  0  0  0  0
    6.1147   17.2294    3.5037 H   0  0  0  0  0  0  0  0  0  0  0  0
    7.2124   18.6513    3.5037 H   0  0  0  0  0  0  0  0  0  0  0  0
    5.6612   18.7382    6.4193 H   0  0  0  0  0  0  0  0  0  0  0  0
    4.9638   20.3335    5.9772 H   0  0  0  0  0  0  0  0  0  0  0  0
    3.9250   18.8681    5.9772 H   0  0  0  0  0  0  0  0  0  0  0  0
    1.9997   16.6667    0.8171 H   0  0  0  0  0  0  0  0  0  0  0  0
   -0.1183   17.7667    0.4555 H   0  0  0  0  0  0  0  0  0  0  0  0
    0.4419   18.5184   -1.0540 H   0  0  0  0  0  0  0  0  0  0  0  0
   -1.3104   16.2686   -0.8700 H   0  0  0  0  0  0  0  0  0  0  0  0
   -0.4759   16.7517   -2.3442 H   0  0  0  0  0  0  0  0  0  0  0  0
    0.6264   15.2776    1.0311 H   0  0  0  0  0  0  0  0  0  0  0  0
   -0.8514   14.5324    0.3329 H   0  0  0  0  0  0  0  0  0  0  0  0
    0.6983   13.6241    0.3329 H   0  0  0  0  0  0  0  0  0  0  0  0
    0.6122   14.7648   -3.2018 H   0  0  0  0  0  0  0  0  0  0  0  0
   -1.6567   14.2172   -2.1112 H   0  0  0  0  0  0  0  0  0  0  0  0
   -0.9853   13.1891   -3.4832 H   0  0  0  0  0  0  0  0  0  0  0  0
   -2.1132   11.8836   -1.4929 H   0  0  0  0  0  0  0  0  0  0  0  0
    1.7230   12.3222   -0.3155 H   0  0  0  0  0  0  0  0  0  0  0  0
    1.8519   10.2394   -2.5841 H   0  0  0  0  0  0  0  0  0  0  0  0
    3.2509   10.8961   -1.6243 H   0  0  0  0  0  0  0  0  0  0  0  0
    2.5806    8.6348   -0.8743 H   0  0  0  0  0  0  0  0  0  0  0  0
    2.3687    9.8942    0.4045 H   0  0  0  0  0  0  0  0  0  0  0  0
    0.4560    8.4434    0.4264 H   0  0  0  0  0  0  0  0  0  0  0  0
   -0.4410    7.7510   -1.3980 H   0  0  0  0  0  0  0  0  0  0  0  0
   -0.5232   10.0994    2.0689 H   0  0  0  0  0  0  0  0  0  0  0  0
    0.9769   10.9177    1.5150 H   0  0  0  0  0  0  0  0  0  0  0  0
   -0.5837   11.8071    1.5150 H   0  0  0  0  0  0  0  0  0  0  0  0
   -2.2139    9.7297    0.9185 H   0  0  0  0  0  0  0  0  0  0  0  0
   -2.4795   10.5880   -0.6369 H   0  0  0  0  0  0  0  0  0  0  0  0
   -1.9046    8.8862   -0.6369 H   0  0  0  0  0  0  0  0  0  0  0  0
    1.9153   11.4388   -3.7081 H   0  0  0  0  0  0  0  0  0  0  0  0
    0.7964   12.7250   -4.2742 H   0  0  0  0  0  0  0  0  0  0  0  0
    2.5695   13.0131   -4.2742 H   0  0  0  0  0  0  0  0  0  0  0  0
    3.7085   12.9203   -1.6100 H   0  0  0  0  0  0  0  0  0  0  0  0
    3.3735   14.1940   -2.9138 H   0  0  0  0  0  0  0  0  0  0  0  0
    2.8874   14.4287    0.0682 H   0  0  0  0  0  0  0  0  0  0  0  0
    4.0648   15.3380   -0.9591 H   0  0  0  0  0  0  0  0  0  0  0  0
    2.8651   17.5113   -2.4641 H   0  0  0  0  0  0  0  0  0  0  0  0
    3.0080   15.8729   -3.1866 H   0  0  0  0  0  0  0  0  0  0  0  0
    1.4237   16.7194   -3.1866 H   0  0  0  0  0  0  0  0  0  0  0  0
  1  2  1  0
  2  3  1  0
  3  4  1  0
  4  5  1  0
  5  6  1  0
  6  7  1  0
  7  8  1  0
  7  9  1  0
  2 10  1  0
 10 11  1  0
 11 12  1  0
 12 13  1  0
 13 14  1  1
 13 15  1  0
 15 16  1  0
 16 17  1  0
 17 18  2  0
 18 19  1  0
 19 20  1  0
 20 21  1  0
 21 22  1  0
 22 23  1  0
 22 24  1  0
 24 25  1  0
 24 26  1  0
 19 27  1  0
 27 28  1  6
 27 29  1  0
 29 30  1  0
 30 31  1  0
 31 32  1  6
  7  5  1  0
 31 10  1  0
 31 13  1  0
 27 15  1  0
 24 18  1  0
  1 33  1  0
  1 34  1  0
  1 35  1  0
  2 36  1  6
  3 37  1  0
  3 38  1  0
  4 39  1  0
  4 40  1  0
  5 41  1  1
  8 42  1  0
  8 43  1  0
  8 44  1  0
  9 45  1  0
  9 46  1  0
  9 47  1  0
 10 48  1  1
 11 49  1  0
 11 50  1  0
 12 51  1  0
 12 52  1  0
 14 53  1  0
 14 54  1  0
 14 55  1  0
 15 56  1  6
 16 57  1  0
 16 58  1  0
 17 59  1  0
 19 60  1  1
 20 61  1  0
 20 62  1  0
 21 63  1  0
 21 64  1  0
 22 65  1  1
 23 66  1  0
 25 67  1  0
 25 68  1  0
 25 69  1  0
 26 70  1  0
 26 71  1  0
 26 72  1  0
 28 73  1  0
 28 74  1  0
 28 75  1  0
 29 76  1  0
 29 77  1  0
 30 78  1  0
 30 79  1  0
 32 80  1  0
 32 81  1  0
 32 82  1  0
M  END
>  <meeko>  (2) 
{"is_sidechain": [false], "intermolecular_energy": 2.731, "internal_energy": -0.839}

$$$$
EPH_relaxed_0001_pdb2pqr_Repair_41_r2_0001_out
     RDKit          3D

 82 86  0  0  0  0  0  0  0  0999 V2000
    0.4390   18.4760   -0.0170 C   0  0  0  0  0  0  0  0  0  0  0  0
    1.5190   17.4100   -0.2220 C   0  0  2  0  0  0  0  0  0  0  0  0
    2.7470   17.9630   -0.9730 C   0  0  0  0  0  0  0  0  0  0  0  0
    3.9770   18.1560   -0.0830 C   0  0  0  0  0  0  0  0  0  0  0  0
    3.6010   18.6330    1.2870 C   0  0  2  0  0  0  0  0  0  0  0  0
    3.8380   20.0270    1.5220 O   0  0  0  0  0  0  0  0  0  0  0  0
    4.6110   19.1110    2.3140 C   0  0  0  0  0  0  0  0  0  0  0  0
    6.0770   19.1330    2.0140 C   0  0  0  0  0  0  0  0  0  0  0  0
    4.2260   19.0900    3.7600 C   0  0  0  0  0  0  0  0  0  0  0  0
    0.9380   16.2210   -0.9790 C   0  0  1  0  0  0  0  0  0  0  0  0
    0.7760   16.5000   -2.4970 C   0  0  0  0  0  0  0  0  0  0  0  0
    1.0600   15.1640   -3.2300 C   0  0  0  0  0  0  0  0  0  0  0  0
    1.0480   14.0950   -2.1120 C   0  0  1  0  0  0  0  0  0  0  0  0
   -0.4630   13.7860   -1.8690 C   0  0  0  0  0  0  0  0  0  0  0  0
    1.8660   12.7930   -2.3930 C   0  0  2  0  0  0  0  0  0  0  0  0
    1.3770   11.9610   -3.5920 C   0  0  0  0  0  0  0  0  0  0  0  0
    0.3590   10.9170   -3.2710 C   0  0  0  0  0  0  0  0  0  0  0  0
    0.0660   10.4630   -2.0380 C   0  0  0  0  0  0  0  0  0  0  0  0
    0.8590   10.9390   -0.8140 C   0  0  1  0  0  0  0  0  0  0  0  0
    1.2420    9.7180    0.0620 C   0  0  0  0  0  0  0  0  0  0  0  0
    0.0320    8.8700    0.4440 C   0  0  0  0  0  0  0  0  0  0  0  0
   -0.6960    8.3670   -0.8000 C   0  0  2  0  0  0  0  0  0  0  0  0
    0.1540    7.4460   -1.4910 O   0  0  0  0  0  0  0  0  0  0  0  0
   -1.1230    9.5090   -1.7630 C   0  0  0  0  0  0  0  0  0  0  0  0
   -2.2680   10.3310   -1.1220 C   0  0  0  0  0  0  0  0  0  0  0  0
   -1.7190    8.8580   -3.0410 C   0  0  0  0  0  0  0  0  0  0  0  0
    2.0990   11.8860   -1.1170 C   0  0  1  0  0  0  0  0  0  0  0  0
    3.3670   11.0260   -1.4080 C   0  0  0  0  0  0  0  0  0  0  0  0
    2.4240   12.7350    0.1690 C   0  0  0  0  0  0  0  0  0  0  0  0
    1.6710   14.0690    0.3290 C   0  0  0  0  0  0  0  0  0  0  0  0
    1.7460   14.8990   -0.9560 C   0  0  2  0  0  0  0  0  0  0  0  0
    3.2530   15.2450   -1.2140 C   0  0  0  0  0  0  0  0  0  0  0  0
    0.2792   18.6337    1.0598 H   0  0  0  0  0  0  0  0  0  0  0  0
    0.7619   19.4192   -0.4818 H   0  0  0  0  0  0  0  0  0  0  0  0
   -0.4999   18.1408   -0.4818 H   0  0  0  0  0  0  0  0  0  0  0  0
    1.8588   17.0880    0.7734 H   0  0  0  0  0  0  0  0  0  0  0  0
    3.0076   17.2598   -1.7778 H   0  0  0  0  0  0  0  0  0  0  0  0
    2.4689   18.9557   -1.3567 H   0  0  0  0  0  0  0  0  0  0  0  0
    4.5062   17.1959    0.0067 H   0  0  0  0  0  0  0  0  0  0  0  0
    4.6196   18.9187   -0.5471 H   0  0  0  0  0  0  0  0  0  0  0  0
    2.7828   17.8999    1.3426 H   0  0  0  0  0  0  0  0  0  0  0  0
    6.6441   19.1415    2.9565 H   0  0  0  0  0  0  0  0  0  0  0  0
    6.3457   18.2388    1.4325 H   0  0  0  0  0  0  0  0  0  0  0  0
    6.3188   20.0349    1.4325 H   0  0  0  0  0  0  0  0  0  0  0  0
    5.1323   19.1394    4.3815 H   0  0  0  0  0  0  0  0  0  0  0  0
    3.5825   19.9544    3.9807 H   0  0  0  0  0  0  0  0  0  0  0  0
    3.6803   18.1608    3.9807 H   0  0  0  0  0  0  0  0  0  0  0  0
   -0.0053   16.0951   -0.4273 H   0  0  0  0  0  0  0  0  0  0  0  0
   -0.2476   16.8401   -2.7125 H   0  0  0  0  0  0  0  0  0  0  0  0
    1.4677   17.2879   -2.8298 H   0  0  0  0  0  0  0  0  0  0  0  0
    0.2777   14.9558   -3.9747 H   0  0  0  0  0  0  0  0  0  0  0  0
    2.0135   15.1835   -3.7781 H   0  0  0  0  0  0  0  0  0  0  0  0
   -0.6597   13.7458   -0.7875 H   0  0  0  0  0  0  0  0  0  0  0  0
   -1.0769   14.5772   -2.3242 H   0  0  0  0  0  0  0  0  0  0  0  0
   -0.7170   12.8173   -2.3242 H   0  0  0  0  0  0  0  0  0  0  0  0
    2.8488   13.1906   -2.6862 H   0  0  0  0  0  0  0  0  0  0  0  0
    0.9365   12.6506   -4.3272 H   0  0  0  0  0  0  0  0  0  0  0  0
    2.2587   11.4210   -3.9676 H   0  0  0  0  0  0  0  0  0  0  0  0
   -0.1988   10.4820   -4.1134 H   0  0  0  0  0  0  0  0  0  0  0  0
    0.1841   11.6027   -0.2537 H   0  0  0  0  0  0  0  0  0  0  0  0
    1.9501    9.0900   -0.4985 H   0  0  0  0  0  0  0  0  0  0  0  0
    1.6888   10.1006    0.9915 H   0  0  0  0  0  0  0  0  0  0  0  0
    0.3697    8.0073    1.0370 H   0  0  0  0  0  0  0  0  0  0  0  0
   -0.6615    9.4913    1.0296 H   0  0  0  0  0  0  0  0  0  0  0  0
   -1.6222    7.8771   -0.4651 H   0  0  0  0  0  0  0  0  0  0  0  0
    1.0420    7.8400   -1.5330 H   0  0  0  0  0  0  0  0  0  0  0  0
   -2.1904   10.2753   -0.0262 H   0  0  0  0  0  0  0  0  0  0  0  0
   -2.1897   11.3804   -1.4422 H   0  0  0  0  0  0  0  0  0  0  0  0
   -3.2373    9.9212   -1.4422 H   0  0  0  0  0  0  0  0  0  0  0  0
   -2.4359    8.0749   -2.7534 H   0  0  0  0  0  0  0  0  0  0  0  0
   -2.2340    9.6255   -3.6374 H   0  0  0  0  0  0  0  0  0  0  0  0
   -0.9091    8.4125   -3.6374 H   0  0  0  0  0  0  0  0  0  0  0  0
    3.8253   10.7152   -0.4575 H   0  0  0  0  0  0  0  0  0  0  0  0
    3.0809   10.1348   -1.9859 H   0  0  0  0  0  0  0  0  0  0  0  0
    4.0892   11.6214   -1.9859 H   0  0  0  0  0  0  0  0  0  0  0  0
    2.1900   12.1135    1.0459 H   0  0  0  0  0  0  0  0  0  0  0  0
    3.4838   13.0127    0.0703 H   0  0  0  0  0  0  0  0  0  0  0  0
    0.6162   13.8610    0.5619 H   0  0  0  0  0  0  0  0  0  0  0  0
    2.1399   14.6407    1.1434 H   0  0  0  0  0  0  0  0  0  0  0  0
    3.7719   15.3641   -0.2514 H   0  0  0  0  0  0  0  0  0  0  0  0
    3.7233   14.4315   -1.7858 H   0  0  0  0  0  0  0  0  0  0  0  0
    3.3213   16.1822   -1.7858 H   0  0  0  0  0  0  0  0  0  0  0  0
  1  2  1  0
  2  3  1  0
  3  4  1  0
  4  5  1  0
  5  6  1  0
  6  7  1  0
  7  8  1  0
  7  9  1  0
  2 10  1  0
 10 11  1  0
 11 12  1  0
 12 13  1  0
 13 14  1  1
 13 15  1  0
 15 16  1  0
 16 17  1  0
 17 18  2  0
 18 19  1  0
 19 20  1  0
 20 21  1  0
 21 22  1  0
 22 23  1  0
 22 24  1  0
 24 25  1  0
 24 26  1  0
 19 27  1  0
 27 28  1  6
 27 29  1  0
 29 30  1  0
 30 31  1  0
 31 32  1  6
  7  5  1  0
 31 10  1  0
 31 13  1  0
 27 15  1  0
 24 18  1  0
  1 33  1  0
  1 34  1  0
  1 35  1  0
  2 36  1  1
  3 37  1  0
  3 38  1  0
  4 39  1  0
  4 40  1  0
  5 41  1  1
  8 42  1  0
  8 43  1  0
  8 44  1  0
  9 45  1  0
  9 46  1  0
  9 47  1  0
 10 48  1  1
 11 49  1  0
 11 50  1  0
 12 51  1  0
 12 52  1  0
 14 53  1  0
 14 54  1  0
 14 55  1  0
 15 56  1  6
 16 57  1  0
 16 58  1  0
 17 59  1  0
 19 60  1  1
 20 61  1  0
 20 62  1  0
 21 63  1  0
 21 64  1  0
 22 65  1  1
 23 66  1  0
 25 67  1  0
 25 68  1  0
 25 69  1  0
 26 70  1  0
 26 71  1  0
 26 72  1  0
 28 73  1  0
 28 74  1  0
 28 75  1  0
 29 76  1  0
 29 77  1  0
 30 78  1  0
 30 79  1  0
 32 80  1  0
 32 81  1  0
 32 82  1  0
M  END
>  <meeko>  (3) 
{"is_sidechain": [false], "intermolecular_energy": 2.731, "internal_energy": -0.839}

$$$$
EPH_relaxed_0001_pdb2pqr_Repair_41_r2_0001_out
     RDKit          3D

 82 86  0  0  0  0  0  0  0  0999 V2000
    2.1890   18.0570   -2.6160 C   0  0  0  0  0  0  0  0  0  0  0  0
    0.6660   17.9020   -2.6510 C   0  0  2  0  0  0  0  0  0  0  0  0
    0.0040   18.3680   -1.3390 C   0  0  0  0  0  0  0  0  0  0  0  0
    0.7630   17.9390   -0.0810 C   0  0  0  0  0  0  0  0  0  0  0  0
    1.2740   19.1200    0.6870 C   0  0  2  0  0  0  0  0  0  0  0  0
    2.1760   19.9630   -0.0410 O   0  0  0  0  0  0  0  0  0  0  0  0
    2.7250   19.2850    1.1000 C   0  0  0  0  0  0  0  0  0  0  0  0
    3.7560   18.2550    0.7580 C   0  0  0  0  0  0  0  0  0  0  0  0
    3.0440   20.1940    2.2460 C   0  0  0  0  0  0  0  0  0  0  0  0
    0.2990   16.4490   -2.9330 C   0  0  1  0  0  0  0  0  0  0  0  0
    0.3400   16.1050   -4.4460 C   0  0  0  0  0  0  0  0  0  0  0  0
    0.8340   14.6400   -4.5570 C   0  0  0  0  0  0  0  0  0  0  0  0
    0.7420   14.0860   -3.1160 C   0  0  1  0  0  0  0  0  0  0  0  0
   -0.7580   13.6990   -2.9300 C   0  0  0  0  0  0  0  0  0  0  0  0
    1.6930   12.8940   -2.7720 C   0  0  2  0  0  0  0  0  0  0  0  0
    1.4540   11.6120   -3.5890 C   0  0  0  0  0  0  0  0  0  0  0  0
    0.4850   10.6460   -2.9900 C   0  0  0  0  0  0  0  0  0  0  0  0
    0.0500   10.6620   -1.7170 C   0  0  0  0  0  0  0  0  0  0  0  0
    0.6140   11.6680   -0.7050 C   0  0  1  0  0  0  0  0  0  0  0  0
    0.9580   10.9340    0.6180 C   0  0  0  0  0  0  0  0  0  0  0  0
   -0.2230   10.1460    1.1750 C   0  0  0  0  0  0  0  0  0  0  0  0
   -0.7180    9.1170    0.1620 C   0  0  2  0  0  0  0  0  0  0  0  0
    0.2940    8.1210   -0.0160 O   0  0  0  0  0  0  0  0  0  0  0  0
   -1.0870    9.7390   -1.2140 C   0  0  0  0  0  0  0  0  0  0  0  0
   -2.3750   10.5860   -1.0730 C   0  0  0  0  0  0  0  0  0  0  0  0
   -1.4350    8.5780   -2.1850 C   0  0  0  0  0  0  0  0  0  0  0  0
    1.8060   12.5810   -1.2250 C   0  0  1  0  0  0  0  0  0  0  0  0
    3.1670   11.8480   -1.0170 C   0  0  0  0  0  0  0  0  0  0  0  0
    1.8700   13.8900   -0.3530 C   0  0  0  0  0  0  0  0  0  0  0  0
    0.9980   15.0740   -0.8130 C   0  0  0  0  0  0  0  0  0  0  0  0
    1.1970   15.3540   -2.3050 C   0  0  2  0  0  0  0  0  0  0  0  0
    2.6920   15.7680   -2.5200 C   0  0  0  0  0  0  0  0  0  0  0  0
    2.5301   18.0917   -1.5708 H   0  0  0  0  0  0  0  0  0  0  0  0
    2.6564   17.2018   -3.1260 H   0  0  0  0  0  0  0  0  0  0  0  0
    2.4745   18.9888   -3.1260 H   0  0  0  0  0  0  0  0  0  0  0  0
    0.2858   18.5455   -3.4581 H   0  0  0  0  0  0  0  0  0  0  0  0
   -0.0556   19.4663   -1.3511 H   0  0  0  0  0  0  0  0  0  0  0  0
   -0.9878   17.8944   -1.2934 H   0  0  0  0  0  0  0  0  0  0  0  0
    0.0857   17.3601    0.5641 H   0  0  0  0  0  0  0  0  0  0  0  0
    1.6262   17.3318   -0.3913 H   0  0  0  0  0  0  0  0  0  0  0  0
    0.3332   19.1889    1.2527 H   0  0  0  0  0  0  0  0  0  0  0  0
    4.1762   17.8352    1.6839 H   0  0  0  0  0  0  0  0  0  0  0  0
    3.2900   17.4510    0.1694 H   0  0  0  0  0  0  0  0  0  0  0  0
    4.5595   18.7218    0.1694 H   0  0  0  0  0  0  0  0  0  0  0  0
    2.8592   19.6675    3.1940 H   0  0  0  0  0  0  0  0  0  0  0  0
    4.1010   20.4938    2.1930 H   0  0  0  0  0  0  0  0  0  0  0  0
    2.4061   21.0886    2.1930 H   0  0  0  0  0  0  0  0  0  0  0  0
   -0.7023   16.4202   -2.4784 H   0  0  0  0  0  0  0  0  0  0  0  0
   -0.6646   16.2004   -4.8837 H   0  0  0  0  0  0  0  0  0  0  0  0
    1.0078   16.7898   -4.9893 H   0  0  0  0  0  0  0  0  0  0  0  0
    0.1892   14.0634   -5.2365 H   0  0  0  0  0  0  0  0  0  0  0  0
    1.8535   14.5737   -4.9647 H   0  0  0  0  0  0  0  0  0  0  0  0
   -0.9908   13.6389   -1.8566 H   0  0  0  0  0  0  0  0  0  0  0  0
   -1.3947   14.4623   -3.4011 H   0  0  0  0  0  0  0  0  0  0  0  0
   -0.9460   12.7229   -3.4011 H   0  0  0  0  0  0  0  0  0  0  0  0
    2.6739   13.2742   -3.0932 H   0  0  0  0  0  0  0  0  0  0  0  0
    1.0739   11.9054   -4.5787 H   0  0  0  0  0  0  0  0  0  0  0  0
    2.4214   11.0897   -3.6262 H   0  0  0  0  0  0  0  0  0  0  0  0
    0.0937    9.8540   -3.6455 H   0  0  0  0  0  0  0  0  0  0  0  0
   -0.1861   12.4017   -0.5274 H   0  0  0  0  0  0  0  0  0  0  0  0
    1.7885   10.2379    0.4291 H   0  0  0  0  0  0  0  0  0  0  0  0
    1.2300   11.6974    1.3618 H   0  0  0  0  0  0  0  0  0  0  0  0
    0.0913    9.6262    2.0920 H   0  0  0  0  0  0  0  0  0  0  0  0
   -1.0421   10.8473    1.3923 H   0  0  0  0  0  0  0  0  0  0  0  0
   -1.6422    8.6768    0.5646 H   0  0  0  0  0  0  0  0  0  0  0  0
    1.1030    8.4430    0.4180 H   0  0  0  0  0  0  0  0  0  0  0  0
   -2.6012   10.7347   -0.0068 H   0  0  0  0  0  0  0  0  0  0  0  0
   -2.2261   11.5630   -1.5560 H   0  0  0  0  0  0  0  0  0  0  0  0
   -3.2130   10.0622   -1.5560 H   0  0  0  0  0  0  0  0  0  0  0  0
   -1.7033    7.6828   -1.6049 H   0  0  0  0  0  0  0  0  0  0  0  0
   -2.2844    8.8723   -2.8189 H   0  0  0  0  0  0  0  0  0  0  0  0
   -0.5637    8.3566   -2.8189 H   0  0  0  0  0  0  0  0  0  0  0  0
    3.3652   11.7413    0.0597 H   0  0  0  0  0  0  0  0  0  0  0  0
    3.1219   10.8521   -1.4820 H   0  0  0  0  0  0  0  0  0  0  0  0
    3.9737   12.4337   -1.4820 H   0  0  0  0  0  0  0  0  0  0  0  0
    1.5595   13.6250    0.6684 H   0  0  0  0  0  0  0  0  0  0  0  0
    2.9074   14.2448   -0.4418 H   0  0  0  0  0  0  0  0  0  0  0  0
   -0.0598   14.8344   -0.6298 H   0  0  0  0  0  0  0  0  0  0  0  0
    1.2939   15.9688   -0.2457 H   0  0  0  0  0  0  0  0  0  0  0  0
    3.1792   15.9029   -1.5431 H   0  0  0  0  0  0  0  0  0  0  0  0
    3.2131   14.9804   -3.0840 H   0  0  0  0  0  0  0  0  0  0  0  0
    2.7337   16.7115   -3.0840 H   0  0  0  0  0  0  0  0  0  0  0  0
  1  2  1  0
  2  3  1  0
  3  4  1  0
  4  5  1  0
  5  6  1  0
  6  7  1  0
  7  8  1  0
  7  9  1  0
  2 10  1  0
 10 11  1  0
 11 12  1  0
 12 13  1  0
 13 14  1  1
 13 15  1  0
 15 16  1  0
 16 17  1  0
 17 18  2  0
 18 19  1  0
 19 20  1  0
 20 21  1  0
 21 22  1  0
 22 23  1  0
 22 24  1  0
 24 25  1  0
 24 26  1  0
 19 27  1  0
 27 28  1  6
 27 29  1  0
 29 30  1  0
 30 31  1  0
 31 32  1  1
  7  5  1  0
 31 10  1  0
 31 13  1  0
 27 15  1  0
 24 18  1  0
  1 33  1  0
  1 34  1  0
  1 35  1  0
  2 36  1  6
  3 37  1  0
  3 38  1  0
  4 39  1  0
  4 40  1  0
  5 41  1  1
  8 42  1  0
  8 43  1  0
  8 44  1  0
  9 45  1  0
  9 46  1  0
  9 47  1  0
 10 48  1  1
 11 49  1  0
 11 50  1  0
 12 51  1  0
 12 52  1  0
 14 53  1  0
 14 54  1  0
 14 55  1  0
 15 56  1  6
 16 57  1  0
 16 58  1  0
 17 59  1  0
 19 60  1  1
 20 61  1  0
 20 62  1  0
 21 63  1  0
 21 64  1  0
 22 65  1  1
 23 66  1  0
 25 67  1  0
 25 68  1  0
 25 69  1  0
 26 70  1  0
 26 71  1  0
 26 72  1  0
 28 73  1  0
 28 74  1  0
 28 75  1  0
 29 76  1  0
 29 77  1  0
 30 78  1  0
 30 79  1  0
 32 80  1  0
 32 81  1  0
 32 82  1  0
M  END
>  <meeko>  (4) 
{"is_sidechain": [false], "intermolecular_energy": 2.731, "internal_energy": -0.839}

$$$$
EPH_relaxed_0001_pdb2pqr_Repair_41_r2_0001_out
     RDKit          3D

 82 86  0  0  0  0  0  0  0  0999 V2000
    2.2580   18.1080   -2.7610 C   0  0  0  0  0  0  0  0  0  0  0  0
    0.9980   17.6920   -1.9970 C   0  0  2  0  0  0  0  0  0  0  0  0
    1.2010   17.7460   -0.4690 C   0  0  0  0  0  0  0  0  0  0  0  0
    0.8500   19.1010    0.1510 C   0  0  0  0  0  0  0  0  0  0  0  0
   -0.5970   19.1760    0.5350 C   0  0  2  0  0  0  0  0  0  0  0  0
   -1.4570   18.2920   -0.1950 O   0  0  0  0  0  0  0  0  0  0  0  0
   -1.6810   19.6980   -0.3880 C   0  0  0  0  0  0  0  0  0  0  0  0
   -1.3650   20.1820   -1.7690 C   0  0  0  0  0  0  0  0  0  0  0  0
   -2.9580   20.1940    0.2160 C   0  0  0  0  0  0  0  0  0  0  0  0
    0.5750   16.2890   -2.4170 C   0  0  1  0  0  0  0  0  0  0  0  0
    0.6700   16.0710   -3.9500 C   0  0  0  0  0  0  0  0  0  0  0  0
    1.0980   14.5960   -4.1670 C   0  0  0  0  0  0  0  0  0  0  0  0
    0.9130   13.9300   -2.7830 C   0  0  1  0  0  0  0  0  0  0  0  0
   -0.6110   13.6060   -2.6940 C   0  0  0  0  0  0  0  0  0  0  0  0
    1.7890   12.6650   -2.5030 C   0  0  2  0  0  0  0  0  0  0  0  0
    1.5260   11.4700   -3.4360 C   0  0  0  0  0  0  0  0  0  0  0  0
    0.4860   10.5090   -2.9640 C   0  0  0  0  0  0  0  0  0  0  0  0
   -0.0060   10.4410   -1.7130 C   0  0  0  0  0  0  0  0  0  0  0  0
    0.5580   11.3280   -0.5960 C   0  0  1  0  0  0  0  0  0  0  0  0
    0.8060   10.4700    0.6720 C   0  0  0  0  0  0  0  0  0  0  0  0
   -0.4370    9.7000    1.1100 C   0  0  0  0  0  0  0  0  0  0  0  0
   -0.9330    8.7860   -0.0080 C   0  0  2  0  0  0  0  0  0  0  0  0
    0.0380    7.7580   -0.2280 O   0  0  0  0  0  0  0  0  0  0  0  0
   -1.2080    9.5390   -1.3390 C   0  0  0  0  0  0  0  0  0  0  0  0
   -2.4590   10.4370   -1.1810 C   0  0  0  0  0  0  0  0  0  0  0  0
   -1.5660    8.4830   -2.4200 C   0  0  0  0  0  0  0  0  0  0  0  0
    1.8150   12.2190   -0.9850 C   0  0  1  0  0  0  0  0  0  0  0  0
    3.1280   11.4010   -0.7840 C   0  0  0  0  0  0  0  0  0  0  0  0
    1.9010   13.4450   -0.0020 C   0  0  0  0  0  0  0  0  0  0  0  0
    1.1100   14.7070   -0.3950 C   0  0  0  0  0  0  0  0  0  0  0  0
    1.3900   15.1000   -1.8480 C   0  0  2  0  0  0  0  0  0  0  0  0
    2.9120   15.4530   -1.9640 C   0  0  0  0  0  0  0  0  0  0  0  0
    3.0511   18.3699   -2.0452 H   0  0  0  0  0  0  0  0  0  0  0  0
    2.5956   17.2736   -3.3933 H   0  0  0  0  0  0  0  0  0  0  0  0
    2.0325   18.9794   -3.3933 H   0  0  0  0  0  0  0  0  0  0  0  0
    0.2049   18.4109   -2.2502 H   0  0  0  0  0  0  0  0  0  0  0  0
    0.5644   16.9772   -0.0067 H   0  0  0  0  0  0  0  0  0  0  0  0
    2.2710   17.5738   -0.2806 H   0  0  0  0  0  0  0  0  0  0  0  0
    1.4658   19.2521    1.0499 H   0  0  0  0  0  0  0  0  0  0  0  0
    1.0474   19.8824   -0.5976 H   0  0  0  0  0  0  0  0  0  0  0  0
   -0.3326   19.4200    1.5745 H   0  0  0  0  0  0  0  0  0  0  0  0
   -0.7646   21.1016   -1.7068 H   0  0  0  0  0  0  0  0  0  0  0  0
   -0.7971   19.4090   -2.3074 H   0  0  0  0  0  0  0  0  0  0  0  0
   -2.3012   20.3910   -2.3074 H   0  0  0  0  0  0  0  0  0  0  0  0
   -2.8807   20.1640    1.3129 H   0  0  0  0  0  0  0  0  0  0  0  0
   -3.1406   21.2284   -0.1106 H   0  0  0  0  0  0  0  0  0  0  0  0
   -3.7909   19.5540   -0.1106 H   0  0  0  0  0  0  0  0  0  0  0  0
   -0.4464   16.2741   -2.0089 H   0  0  0  0  0  0  0  0  0  0  0  0
   -0.3074   16.2548   -4.4200 H   0  0  0  0  0  0  0  0  0  0  0  0
    1.3950   16.7632   -4.4030 H   0  0  0  0  0  0  0  0  0  0  0  0
    0.4580   14.1124   -4.9196 H   0  0  0  0  0  0  0  0  0  0  0  0
    2.1304   14.5107   -4.5370 H   0  0  0  0  0  0  0  0  0  0  0  0
   -0.9112   13.5422   -1.6377 H   0  0  0  0  0  0  0  0  0  0  0  0
   -1.1848   14.4022   -3.1908 H   0  0  0  0  0  0  0  0  0  0  0  0
   -0.8112   12.6452   -3.1908 H   0  0  0  0  0  0  0  0  0  0  0  0
    2.8011   13.0185   -2.7493 H   0  0  0  0  0  0  0  0  0  0  0  0
    1.2063   11.8646   -4.4117 H   0  0  0  0  0  0  0  0  0  0  0  0
    2.4678   10.9031   -3.4770 H   0  0  0  0  0  0  0  0  0  0  0  0
    0.0879    9.7960   -3.7010 H   0  0  0  0  0  0  0  0  0  0  0  0
   -0.2142   12.0838   -0.3901 H   0  0  0  0  0  0  0  0  0  0  0  0
    1.6099    9.7500    0.4589 H   0  0  0  0  0  0  0  0  0  0  0  0
    1.0806   11.1533    1.4891 H   0  0  0  0  0  0  0  0  0  0  0  0
   -0.1908    9.0899    1.9916 H   0  0  0  0  0  0  0  0  0  0  0  0
   -1.2308   10.4220    1.3523 H   0  0  0  0  0  0  0  0  0  0  0  0
   -1.8947    8.3613    0.3157 H   0  0  0  0  0  0  0  0  0  0  0  0
    0.7430    8.1330   -0.7810 H   0  0  0  0  0  0  0  0  0  0  0  0
   -2.6693   10.5880   -0.1119 H   0  0  0  0  0  0  0  0  0  0  0  0
   -2.2746   11.4102   -1.6594 H   0  0  0  0  0  0  0  0  0  0  0  0
   -3.3221    9.9509   -1.6594 H   0  0  0  0  0  0  0  0  0  0  0  0
   -1.8823    7.5500   -1.9306 H   0  0  0  0  0  0  0  0  0  0  0  0
   -2.3852    8.8639   -3.0475 H   0  0  0  0  0  0  0  0  0  0  0  0
   -0.6840    8.2871   -3.0475 H   0  0  0  0  0  0  0  0  0  0  0  0
    3.3232   11.2794    0.2917 H   0  0  0  0  0  0  0  0  0  0  0  0
    3.0184   10.4111   -1.2510 H   0  0  0  0  0  0  0  0  0  0  0  0
    3.9682   11.9357   -1.2510 H   0  0  0  0  0  0  0  0  0  0  0  0
    1.5304   13.1119    0.9787 H   0  0  0  0  0  0  0  0  0  0  0  0
    2.9574   13.7515   -0.0157 H   0  0  0  0  0  0  0  0  0  0  0  0
    0.0345   14.5087   -0.2769 H   0  0  0  0  0  0  0  0  0  0  0  0
    1.4234   15.5346    0.2584 H   0  0  0  0  0  0  0  0  0  0  0  0
    3.3430   15.5530   -0.9569 H   0  0  0  0  0  0  0  0  0  0  0  0
    3.4337   14.6520   -2.5083 H   0  0  0  0  0  0  0  0  0  0  0  0
    3.0279   16.4019   -2.5083 H   0  0  0  0  0  0  0  0  0  0  0  0
  1  2  1  0
  2  3  1  0
  3  4  1  0
  4  5  1  0
  5  6  1  0
  6  7  1  0
  7  8  1  0
  7  9  1  0
  2 10  1  0
 10 11  1  0
 11 12  1  0
 12 13  1  0
 13 14  1  1
 13 15  1  0
 15 16  1  0
 16 17  1  0
 17 18  2  0
 18 19  1  0
 19 20  1  0
 20 21  1  0
 21 22  1  0
 22 23  1  0
 22 24  1  0
 24 25  1  0
 24 26  1  0
 19 27  1  0
 27 28  1  6
 27 29  1  0
 29 30  1  0
 30 31  1  0
 31 32  1  1
  7  5  1  0
 31 10  1  0
 31 13  1  0
 27 15  1  0
 24 18  1  0
  1 33  1  0
  1 34  1  0
  1 35  1  0
  2 36  1  1
  3 37  1  0
  3 38  1  0
  4 39  1  0
  4 40  1  0
  5 41  1  1
  8 42  1  0
  8 43  1  0
  8 44  1  0
  9 45  1  0
  9 46  1  0
  9 47  1  0
 10 48  1  1
 11 49  1  0
 11 50  1  0
 12 51  1  0
 12 52  1  0
 14 53  1  0
 14 54  1  0
 14 55  1  0
 15 56  1  6
 16 57  1  0
 16 58  1  0
 17 59  1  0
 19 60  1  1
 20 61  1  0
 20 62  1  0
 21 63  1  0
 21 64  1  0
 22 65  1  1
 23 66  1  0
 25 67  1  0
 25 68  1  0
 25 69  1  0
 26 70  1  0
 26 71  1  0
 26 72  1  0
 28 73  1  0
 28 74  1  0
 28 75  1  0
 29 76  1  0
 29 77  1  0
 30 78  1  0
 30 79  1  0
 32 80  1  0
 32 81  1  0
 32 82  1  0
M  END
>  <meeko>  (5) 
{"is_sidechain": [false], "intermolecular_energy": 2.731, "internal_energy": -0.839}

$$$$
EPH_relaxed_0001_pdb2pqr_Repair_41_r2_0001_out
     RDKit          3D

 82 86  0  0  0  0  0  0  0  0999 V2000
    3.8440   17.7270    0.3240 C   0  0  0  0  0  0  0  0  0  0  0  0
    2.7670   18.0690   -0.7090 C   0  0  2  0  0  0  0  0  0  0  0  0
    2.1000   19.4290   -0.4240 C   0  0  0  0  0  0  0  0  0  0  0  0
    1.0950   19.3920    0.7300 C   0  0  0  0  0  0  0  0  0  0  0  0
   -0.1970   20.0580    0.3630 C   0  0  2  0  0  0  0  0  0  0  0  0
   -1.1300   20.1910    1.4430 O   0  0  0  0  0  0  0  0  0  0  0  0
   -1.5350   19.3430    0.3570 C   0  0  0  0  0  0  0  0  0  0  0  0
   -1.6480   17.8960    0.7240 C   0  0  0  0  0  0  0  0  0  0  0  0
   -2.6460   19.9110   -0.4700 C   0  0  0  0  0  0  0  0  0  0  0  0
    1.7130   16.9690   -0.7450 C   0  0  1  0  0  0  0  0  0  0  0  0
    0.3800   17.4390   -1.3850 C   0  0  0  0  0  0  0  0  0  0  0  0
   -0.2010   16.2230   -2.1520 C   0  0  0  0  0  0  0  0  0  0  0  0
    0.6320   15.0170   -1.6590 C   0  0  1  0  0  0  0  0  0  0  0  0
   -0.0070   14.6200   -0.2910 C   0  0  0  0  0  0  0  0  0  0  0  0
    0.7200   13.7950   -2.6300 C   0  0  2  0  0  0  0  0  0  0  0  0
   -0.6220   13.1100   -2.9420 C   0  0  0  0  0  0  0  0  0  0  0  0
   -0.9970   11.9940   -2.0230 C   0  0  0  0  0  0  0  0  0  0  0  0
   -0.1640   11.3720   -1.1680 C   0  0  0  0  0  0  0  0  0  0  0  0
    1.3310   11.7130   -1.1360 C   0  0  1  0  0  0  0  0  0  0  0  0
    2.1610   10.4020   -1.1190 C   0  0  0  0  0  0  0  0  0  0  0  0
    1.7520    9.4650    0.0130 C   0  0  0  0  0  0  0  0  0  0  0  0
    0.2720    9.1030   -0.0860 C   0  0  2  0  0  0  0  0  0  0  0  0
    0.0690    8.3140   -1.2630 O   0  0  0  0  0  0  0  0  0  0  0  0
   -0.6620   10.3450   -0.1220 C   0  0  0  0  0  0  0  0  0  0  0  0
   -0.6680   11.0300    1.2670 C   0  0  0  0  0  0  0  0  0  0  0  0
   -2.1110    9.8450   -0.3660 C   0  0  0  0  0  0  0  0  0  0  0  0
    1.8330   12.7380   -2.2420 C   0  0  1  0  0  0  0  0  0  0  0  0
    2.1950   11.9730   -3.5520 C   0  0  0  0  0  0  0  0  0  0  0  0
    3.1610   13.4220   -1.7450 C   0  0  0  0  0  0  0  0  0  0  0  0
    3.0090   14.6930   -0.8890 C   0  0  0  0  0  0  0  0  0  0  0  0
    2.0490   15.6880   -1.5490 C   0  0  2  0  0  0  0  0  0  0  0  0
    2.6770   16.1220   -2.9180 C   0  0  0  0  0  0  0  0  0  0  0  0
    3.4350   17.8569    1.3368 H   0  0  0  0  0  0  0  0  0  0  0  0
    4.1636   16.6832    0.1887 H   0  0  0  0  0  0  0  0  0  0  0  0
    4.7072   18.3952    0.1887 H   0  0  0  0  0  0  0  0  0  0  0  0
    3.2606   18.1427   -1.6893 H   0  0  0  0  0  0  0  0  0  0  0  0
    2.8869   20.1565   -0.1759 H   0  0  0  0  0  0  0  0  0  0  0  0
    1.5402   19.7082   -1.3288 H   0  0  0  0  0  0  0  0  0  0  0  0
    0.8930   18.3432    0.9931 H   0  0  0  0  0  0  0  0  0  0  0  0
    1.5308   19.9356    1.5812 H   0  0  0  0  0  0  0  0  0  0  0  0
    0.3105   20.6802   -0.3889 H   0  0  0  0  0  0  0  0  0  0  0  0
   -1.6559   17.7951    1.8193 H   0  0  0  0  0  0  0  0  0  0  0  0
   -2.5810   17.4848    0.3112 H   0  0  0  0  0  0  0  0  0  0  0  0
   -0.7902   17.3449    0.3112 H   0  0  0  0  0  0  0  0  0  0  0  0
   -3.4283   20.3109    0.1919 H   0  0  0  0  0  0  0  0  0  0  0  0
   -2.2542   20.7194   -1.1048 H   0  0  0  0  0  0  0  0  0  0  0  0
   -3.0719   19.1200   -1.1048 H   0  0  0  0  0  0  0  0  0  0  0  0
    1.6546   16.7350    0.3282 H   0  0  0  0  0  0  0  0  0  0  0  0
   -0.3218   17.7641   -0.6029 H   0  0  0  0  0  0  0  0  0  0  0  0
    0.5452   18.2905   -2.0615 H   0  0  0  0  0  0  0  0  0  0  0  0
   -1.2653   16.0843   -1.9111 H   0  0  0  0  0  0  0  0  0  0  0  0
   -0.1437   16.3516   -3.2429 H   0  0  0  0  0  0  0  0  0  0  0  0
    0.6148   15.0063    0.5300 H   0  0  0  0  0  0  0  0  0  0  0  0
   -1.0170   15.0499   -0.2196 H   0  0  0  0  0  0  0  0  0  0  0  0
   -0.0691   13.5241   -0.2196 H   0  0  0  0  0  0  0  0  0  0  0  0
    1.0400   14.2650   -3.5716 H   0  0  0  0  0  0  0  0  0  0  0  0
   -1.4130   13.8727   -2.8910 H   0  0  0  0  0  0  0  0  0  0  0  0
   -0.5090   12.6587   -3.9388 H   0  0  0  0  0  0  0  0  0  0  0  0
   -2.0420   11.6515   -2.0469 H   0  0  0  0  0  0  0  0  0  0  0  0
    1.4950   12.2714   -0.2026 H   0  0  0  0  0  0  0  0  0  0  0  0
    2.0171    9.8812   -2.0771 H   0  0  0  0  0  0  0  0  0  0  0  0
    3.2146   10.6760   -0.9612 H   0  0  0  0  0  0  0  0  0  0  0  0
    2.3523    8.5452   -0.0464 H   0  0  0  0  0  0  0  0  0  0  0  0
    1.9251    9.9760    0.9716 H   0  0  0  0  0  0  0  0  0  0  0  0
    0.0086    8.5394    0.8212 H   0  0  0  0  0  0  0  0  0  0  0  0
   -0.8370    7.9640   -1.2300 H   0  0  0  0  0  0  0  0  0  0  0  0
   -0.6613   10.2621    2.0546 H   0  0  0  0  0  0  0  0  0  0  0  0
    0.2246   11.6651    1.3665 H   0  0  0  0  0  0  0  0  0  0  0  0
   -1.5716   11.6494    1.3665 H   0  0  0  0  0  0  0  0  0  0  0  0
   -2.6074    9.6737    0.6006 H   0  0  0  0  0  0  0  0  0  0  0  0
   -2.6692   10.6025   -0.9357 H   0  0  0  0  0  0  0  0  0  0  0  0
   -2.0833    8.9045   -0.9357 H   0  0  0  0  0  0  0  0  0  0  0  0
    2.6527   11.0057   -3.2972 H   0  0  0  0  0  0  0  0  0  0  0  0
    1.2820   11.8027   -4.1414 H   0  0  0  0  0  0  0  0  0  0  0  0
    2.9056   12.5710   -4.1414 H   0  0  0  0  0  0  0  0  0  0  0  0
    3.7128   12.6819   -1.1468 H   0  0  0  0  0  0  0  0  0  0  0  0
    3.6753   13.7510   -2.6600 H   0  0  0  0  0  0  0  0  0  0  0  0
    2.6156   14.4156    0.1001 H   0  0  0  0  0  0  0  0  0  0  0  0
    3.9955   15.1699   -0.7915 H   0  0  0  0  0  0  0  0  0  0  0  0
    3.5691   16.7385   -2.7332 H   0  0  0  0  0  0  0  0  0  0  0  0
    2.9619   15.2272   -3.4908 H   0  0  0  0  0  0  0  0  0  0  0  0
    1.9407   16.7049   -3.4908 H   0  0  0  0  0  0  0  0  0  0  0  0
  1  2  1  0
  2  3  1  0
  3  4  1  0
  4  5  1  0
  5  6  1  0
  6  7  1  0
  7  8  1  0
  7  9  1  0
  2 10  1  0
 10 11  1  0
 11 12  1  0
 12 13  1  0
 13 14  1  1
 13 15  1  0
 15 16  1  0
 16 17  1  0
 17 18  2  0
 18 19  1  0
 19 20  1  0
 20 21  1  0
 21 22  1  0
 22 23  1  0
 22 24  1  0
 24 25  1  0
 24 26  1  0
 19 27  1  0
 27 28  1  6
 27 29  1  0
 29 30  1  0
 30 31  1  0
 31 32  1  6
  7  5  1  0
 31 10  1  0
 31 13  1  0
 27 15  1  0
 24 18  1  0
  1 33  1  0
  1 34  1  0
  1 35  1  0
  2 36  1  6
  3 37  1  0
  3 38  1  0
  4 39  1  0
  4 40  1  0
  5 41  1  6
  8 42  1  0
  8 43  1  0
  8 44  1  0
  9 45  1  0
  9 46  1  0
  9 47  1  0
 10 48  1  1
 11 49  1  0
 11 50  1  0
 12 51  1  0
 12 52  1  0
 14 53  1  0
 14 54  1  0
 14 55  1  0
 15 56  1  6
 16 57  1  0
 16 58  1  0
 17 59  1  0
 19 60  1  1
 20 61  1  0
 20 62  1  0
 21 63  1  0
 21 64  1  0
 22 65  1  1
 23 66  1  0
 25 67  1  0
 25 68  1  0
 25 69  1  0
 26 70  1  0
 26 71  1  0
 26 72  1  0
 28 73  1  0
 28 74  1  0
 28 75  1  0
 29 76  1  0
 29 77  1  0
 30 78  1  0
 30 79  1  0
 32 80  1  0
 32 81  1  0
 32 82  1  0
M  END
>  <meeko>  (6) 
{"is_sidechain": [false], "intermolecular_energy": 2.731, "internal_energy": -0.839}

$$$$
EPH_relaxed_0001_pdb2pqr_Repair_41_r2_0001_out
     RDKit          3D

 82 86  0  0  0  0  0  0  0  0999 V2000
  -14.5360    5.5690    0.6930 C   0  0  0  0  0  0  0  0  0  0  0  0
  -13.9380    6.9470    0.3950 C   0  0  2  0  0  0  0  0  0  0  0  0
  -15.0190    7.9810    0.0230 C   0  0  0  0  0  0  0  0  0  0  0  0
  -14.5520    9.4340    0.1570 C   0  0  0  0  0  0  0  0  0  0  0  0
  -15.2720   10.3370   -0.7990 C   0  0  2  0  0  0  0  0  0  0  0  0
  -15.1670    9.9560   -2.1770 O   0  0  0  0  0  0  0  0  0  0  0  0
  -14.5650   11.2100   -1.8180 C   0  0  0  0  0  0  0  0  0  0  0  0
  -13.0730   11.2240   -1.9330 C   0  0  0  0  0  0  0  0  0  0  0  0
  -15.2870   12.4040   -2.3620 C   0  0  0  0  0  0  0  0  0  0  0  0
  -12.9140    6.8360   -0.7290 C   0  0  1  0  0  0  0  0  0  0  0  0
  -13.2670    7.7280   -1.9490 C   0  0  0  0  0  0  0  0  0  0  0  0
  -11.9250    8.2360   -2.5360 C   0  0  0  0  0  0  0  0  0  0  0  0
  -10.8460    7.3640   -1.8510 C   0  0  1  0  0  0  0  0  0  0  0  0
  -10.8380    6.0280   -2.6580 C   0  0  0  0  0  0  0  0  0  0  0  0
   -9.4150    7.9870   -1.7520 C   0  0  2  0  0  0  0  0  0  0  0  0
   -8.7360    8.2790   -3.1020 C   0  0  0  0  0  0  0  0  0  0  0  0
   -7.9080    7.1660   -3.6530 C   0  0  0  0  0  0  0  0  0  0  0  0
   -7.4840    6.0910   -2.9630 C   0  0  0  0  0  0  0  0  0  0  0  0
   -7.7530    5.9640   -1.4580 C   0  0  1  0  0  0  0  0  0  0  0  0
   -6.4530    5.5260   -0.7350 C   0  0  0  0  0  0  0  0  0  0  0  0
   -5.8530    4.2550   -1.3290 C   0  0  0  0  0  0  0  0  0  0  0  0
   -5.5450    4.4390   -2.8130 C   0  0  2  0  0  0  0  0  0  0  0  0
   -4.4950    5.4010   -2.9500 O   0  0  0  0  0  0  0  0  0  0  0  0
   -6.7790    4.8910   -3.6430 C   0  0  0  0  0  0  0  0  0  0  0  0
   -7.7940    3.7250   -3.7430 C   0  0  0  0  0  0  0  0  0  0  0  0
   -6.3010    5.1760   -5.0920 C   0  0  0  0  0  0  0  0  0  0  0  0
   -8.4410    7.2210   -0.7690 C   0  0  1  0  0  0  0  0  0  0  0  0
   -7.3530    8.2480   -0.3290 C   0  0  0  0  0  0  0  0  0  0  0  0
   -9.1660    6.7520    0.5470 C   0  0  0  0  0  0  0  0  0  0  0  0
  -10.6190    6.2590    0.4020 C   0  0  0  0  0  0  0  0  0  0  0  0
  -11.4570    7.2540   -0.4070 C   0  0  2  0  0  0  0  0  0  0  0  0
  -11.5010    8.6020    0.3910 C   0  0  0  0  0  0  0  0  0  0  0  0
  -14.5988    5.4242    1.7816 H   0  0  0  0  0  0  0  0  0  0  0  0
  -15.5433    5.5041    0.2557 H   0  0  0  0  0  0  0  0  0  0  0  0
  -13.8954    4.7890    0.2557 H   0  0  0  0  0  0  0  0  0  0  0  0
  -13.4460    7.3005    1.3132 H   0  0  0  0  0  0  0  0  0  0  0  0
  -15.3210    7.8079   -1.0205 H   0  0  0  0  0  0  0  0  0  0  0  0
  -15.8518    7.8441    0.7285 H   0  0  0  0  0  0  0  0  0  0  0  0
  -14.7435    9.7769    1.1845 H   0  0  0  0  0  0  0  0  0  0  0  0
  -13.4779    9.4725   -0.0770 H   0  0  0  0  0  0  0  0  0  0  0  0
  -16.0430   10.5582   -0.0463 H   0  0  0  0  0  0  0  0  0  0  0  0
  -12.6277   11.2282   -0.9272 H   0  0  0  0  0  0  0  0  0  0  0  0
  -12.7389   10.3290   -2.4782 H   0  0  0  0  0  0  0  0  0  0  0  0
  -12.7557   12.1252   -2.4782 H   0  0  0  0  0  0  0  0  0  0  0  0
  -15.6587   13.0187   -1.5289 H   0  0  0  0  0  0  0  0  0  0  0  0
  -14.5977   12.9999   -2.9783 H   0  0  0  0  0  0  0  0  0  0  0  0
  -16.1349   12.0704   -2.9783 H   0  0  0  0  0  0  0  0  0  0  0  0
  -12.9625    5.7532   -0.9167 H   0  0  0  0  0  0  0  0  0  0  0  0
  -13.8117    7.1404   -2.7027 H   0  0  0  0  0  0  0  0  0  0  0  0
  -13.9104    8.5687   -1.6502 H   0  0  0  0  0  0  0  0  0  0  0  0
  -11.9011    8.0979   -3.6270 H   0  0  0  0  0  0  0  0  0  0  0  0
  -11.7703    9.3101   -2.3559 H   0  0  0  0  0  0  0  0  0  0  0  0
  -10.8329    5.1780   -1.9599 H   0  0  0  0  0  0  0  0  0  0  0  0
  -11.7359    5.9769   -3.2914 H   0  0  0  0  0  0  0  0  0  0  0  0
   -9.9396    5.9876   -3.2914 H   0  0  0  0  0  0  0  0  0  0  0  0
   -9.6162    8.9694   -1.2998 H   0  0  0  0  0  0  0  0  0  0  0  0
   -9.5226    8.5124   -3.8347 H   0  0  0  0  0  0  0  0  0  0  0  0
   -8.0423    9.1130   -2.9197 H   0  0  0  0  0  0  0  0  0  0  0  0
   -7.6199    7.2297   -4.7127 H   0  0  0  0  0  0  0  0  0  0  0  0
   -8.5205    5.1834   -1.3504 H   0  0  0  0  0  0  0  0  0  0  0  0
   -5.7138    6.3365   -0.8168 H   0  0  0  0  0  0  0  0  0  0  0  0
   -6.7089    5.3158    0.3140 H   0  0  0  0  0  0  0  0  0  0  0  0
   -4.9220    4.0129   -0.7954 H   0  0  0  0  0  0  0  0  0  0  0  0
   -6.5820    3.4385   -1.2203 H   0  0  0  0  0  0  0  0  0  0  0  0
   -5.2408    3.4596   -3.2108 H   0  0  0  0  0  0  0  0  0  0  0  0
   -4.8190    6.2440   -2.5890 H   0  0  0  0  0  0  0  0  0  0  0  0
   -8.0782    3.3985   -2.7317 H   0  0  0  0  0  0  0  0  0  0  0  0
   -8.6897    4.0640   -4.2841 H   0  0  0  0  0  0  0  0  0  0  0  0
   -7.3348    2.8846   -4.2841 H   0  0  0  0  0  0  0  0  0  0  0  0
   -5.3565    5.7391   -5.0625 H   0  0  0  0  0  0  0  0  0  0  0  0
   -6.1439    4.2240   -5.6202 H   0  0  0  0  0  0  0  0  0  0  0  0
   -7.0638    5.7669   -5.6202 H   0  0  0  0  0  0  0  0  0  0  0  0
   -7.3100    8.2886    0.7694 H   0  0  0  0  0  0  0  0  0  0  0  0
   -6.3743    7.9368   -0.7230 H   0  0  0  0  0  0  0  0  0  0  0  0
   -7.6073    9.2430   -0.7230 H   0  0  0  0  0  0  0  0  0  0  0  0
   -8.5765    5.9285    0.9763 H   0  0  0  0  0  0  0  0  0  0  0  0
   -9.2288    7.6514    1.1772 H   0  0  0  0  0  0  0  0  0  0  0  0
  -10.6195    5.2865   -0.1120 H   0  0  0  0  0  0  0  0  0  0  0  0
  -11.0592    6.1640    1.4056 H   0  0  0  0  0  0  0  0  0  0  0  0
  -11.4941    8.3896    1.4703 H   0  0  0  0  0  0  0  0  0  0  0  0
  -10.6222    9.2106    0.1314 H   0  0  0  0  0  0  0  0  0  0  0  0
  -12.4176    9.1520    0.1314 H   0  0  0  0  0  0  0  0  0  0  0  0
  1  2  1  0
  2  3  1  0
  3  4  1  0
  4  5  1  0
  5  6  1  0
  6  7  1  0
  7  8  1  0
  7  9  1  0
  2 10  1  0
 10 11  1  0
 11 12  1  0
 12 13  1  0
 13 14  1  6
 13 15  1  0
 15 16  1  0
 16 17  1  0
 17 18  2  0
 18 19  1  0
 19 20  1  0
 20 21  1  0
 21 22  1  0
 22 23  1  0
 22 24  1  0
 24 25  1  0
 24 26  1  0
 19 27  1  0
 27 28  1  1
 27 29  1  0
 29 30  1  0
 30 31  1  0
 31 32  1  1
  7  5  1  0
 31 10  1  0
 31 13  1  0
 27 15  1  0
 24 18  1  0
  1 33  1  0
  1 34  1  0
  1 35  1  0
  2 36  1  1
  3 37  1  0
  3 38  1  0
  4 39  1  0
  4 40  1  0
  5 41  1  1
  8 42  1  0
  8 43  1  0
  8 44  1  0
  9 45  1  0
  9 46  1  0
  9 47  1  0
 10 48  1  6
 11 49  1  0
 11 50  1  0
 12 51  1  0
 12 52  1  0
 14 53  1  0
 14 54  1  0
 14 55  1  0
 15 56  1  1
 16 57  1  0
 16 58  1  0
 17 59  1  0
 19 60  1  6
 20 61  1  0
 20 62  1  0
 21 63  1  0
 21 64  1  0
 22 65  1  6
 23 66  1  0
 25 67  1  0
 25 68  1  0
 25 69  1  0
 26 70  1  0
 26 71  1  0
 26 72  1  0
 28 73  1  0
 28 74  1  0
 28 75  1  0
 29 76  1  0
 29 77  1  0
 30 78  1  0
 30 79  1  0
 32 80  1  0
 32 81  1  0
 32 82  1  0
M  END
>  <meeko>  (7) 
{"is_sidechain": [false], "intermolecular_energy": 2.731, "internal_energy": -0.839}

$$$$
EPH_relaxed_0001_pdb2pqr_Repair_41_r2_0001_out
     RDKit          3D

 82 86  0  0  0  0  0  0  0  0999 V2000
   -4.9820    8.5630   -1.0130 C   0  0  0  0  0  0  0  0  0  0  0  0
   -5.5300    7.3550   -1.7790 C   0  0  2  0  0  0  0  0  0  0  0  0
   -4.6590    6.9980   -3.0010 C   0  0  0  0  0  0  0  0  0  0  0  0
   -4.2030    5.5370   -3.0250 C   0  0  0  0  0  0  0  0  0  0  0  0
   -5.1430    4.6500   -2.2650 C   0  0  2  0  0  0  0  0  0  0  0  0
   -5.0140    3.2530   -2.5550 O   0  0  0  0  0  0  0  0  0  0  0  0
   -6.2630    3.8630   -2.9170 C   0  0  0  0  0  0  0  0  0  0  0  0
   -6.5050    3.9270   -4.3930 C   0  0  0  0  0  0  0  0  0  0  0  0
   -7.4170    3.4240   -2.0700 C   0  0  0  0  0  0  0  0  0  0  0  0
   -6.9620    7.6280   -2.2230 C   0  0  1  0  0  0  0  0  0  0  0  0
   -7.3050    6.9590   -3.5810 C   0  0  0  0  0  0  0  0  0  0  0  0
   -8.7920    6.5270   -3.5040 C   0  0  0  0  0  0  0  0  0  0  0  0
   -9.3440    7.2490   -2.2520 C   0  0  1  0  0  0  0  0  0  0  0  0
   -9.6590    8.7000   -2.7330 C   0  0  0  0  0  0  0  0  0  0  0  0
  -10.5810    6.5870   -1.5630 C   0  0  2  0  0  0  0  0  0  0  0  0
  -11.8480    6.5090   -2.4320 C   0  0  0  0  0  0  0  0  0  0  0  0
  -12.7680    7.6800   -2.3250 C   0  0  0  0  0  0  0  0  0  0  0  0
  -12.7340    8.6160   -1.3580 C   0  0  0  0  0  0  0  0  0  0  0  0
  -11.7580    8.4970   -0.1800 C   0  0  1  0  0  0  0  0  0  0  0  0
  -12.5110    8.7810    1.1460 C   0  0  0  0  0  0  0  0  0  0  0  0
  -13.2430   10.1190    1.1280 C   0  0  0  0  0  0  0  0  0  0  0  0
  -14.2450   10.1770   -0.0220 C   0  0  2  0  0  0  0  0  0  0  0  0
  -15.2870    9.2280    0.2270 O   0  0  0  0  0  0  0  0  0  0  0  0
  -13.6030    9.8970   -1.4090 C   0  0  0  0  0  0  0  0  0  0  0  0
  -12.6950   11.0850   -1.8120 C   0  0  0  0  0  0  0  0  0  0  0  0
  -14.7430    9.8450   -2.4610 C   0  0  0  0  0  0  0  0  0  0  0  0
  -10.9020    7.1590   -0.1220 C   0  0  1  0  0  0  0  0  0  0  0  0
  -11.7000    6.0490    0.6290 C   0  0  0  0  0  0  0  0  0  0  0  0
   -9.5990    7.4180    0.7230 C   0  0  0  0  0  0  0  0  0  0  0  0
   -8.3740    7.9600   -0.0380 C   0  0  0  0  0  0  0  0  0  0  0  0
   -8.1010    7.1310   -1.2970 C   0  0  2  0  0  0  0  0  0  0  0  0
   -7.7580    5.6710   -0.8440 C   0  0  0  0  0  0  0  0  0  0  0  0
   -5.0651    8.3799    0.0685 H   0  0  0  0  0  0  0  0  0  0  0  0
   -3.9258    8.7173   -1.2787 H   0  0  0  0  0  0  0  0  0  0  0  0
   -5.5616    9.4594   -1.2787 H   0  0  0  0  0  0  0  0  0  0  0  0
   -5.5098    6.4930   -1.0959 H   0  0  0  0  0  0  0  0  0  0  0  0
   -5.2421    7.1950   -3.9127 H   0  0  0  0  0  0  0  0  0  0  0  0
   -3.7518    7.6173   -2.9415 H   0  0  0  0  0  0  0  0  0  0  0  0
   -4.1564    5.1952   -4.0695 H   0  0  0  0  0  0  0  0  0  0  0  0
   -3.2142    5.4786   -2.5466 H   0  0  0  0  0  0  0  0  0  0  0  0
   -5.1266    5.3330   -1.4029 H   0  0  0  0  0  0  0  0  0  0  0  0
   -7.5528    4.2041   -4.5811 H   0  0  0  0  0  0  0  0  0  0  0  0
   -5.8404    4.6803   -4.8412 H   0  0  0  0  0  0  0  0  0  0  0  0
   -6.2996    2.9437   -4.8412 H   0  0  0  0  0  0  0  0  0  0  0  0
   -7.1513    3.5251   -1.0074 H   0  0  0  0  0  0  0  0  0  0  0  0
   -8.2931    4.0517   -2.2902 H   0  0  0  0  0  0  0  0  0  0  0  0
   -7.6544    2.3727   -2.2902 H   0  0  0  0  0  0  0  0  0  0  0  0
   -6.9428    8.7277   -2.2395 H   0  0  0  0  0  0  0  0  0  0  0  0
   -7.1608    7.6753   -4.4033 H   0  0  0  0  0  0  0  0  0  0  0  0
   -6.6520    6.0945   -3.7715 H   0  0  0  0  0  0  0  0  0  0  0  0
   -9.3356    6.8439   -4.4062 H   0  0  0  0  0  0  0  0  0  0  0  0
   -8.9062    5.4348   -3.4399 H   0  0  0  0  0  0  0  0  0  0  0  0
   -9.8008    9.3532   -1.8594 H   0  0  0  0  0  0  0  0  0  0  0  0
   -8.8214    9.0753   -3.3393 H   0  0  0  0  0  0  0  0  0  0  0  0
  -10.5768    8.6942   -3.3393 H   0  0  0  0  0  0  0  0  0  0  0  0
  -10.2482    5.5473   -1.4277 H   0  0  0  0  0  0  0  0  0  0  0  0
  -11.5346    6.4179   -3.4825 H   0  0  0  0  0  0  0  0  0  0  0  0
  -12.4158    5.6414   -2.0648 H   0  0  0  0  0  0  0  0  0  0  0  0
  -13.5390    7.7870   -3.1022 H   0  0  0  0  0  0  0  0  0  0  0  0
  -10.9876    9.2650   -0.3434 H   0  0  0  0  0  0  0  0  0  0  0  0
  -13.2456    7.9794    1.3130 H   0  0  0  0  0  0  0  0  0  0  0  0
  -11.7639    8.8200    1.9524 H   0  0  0  0  0  0  0  0  0  0  0  0
  -13.7792   10.2488    2.0796 H   0  0  0  0  0  0  0  0  0  0  0  0
  -12.5038   10.9219    0.9905 H   0  0  0  0  0  0  0  0  0  0  0  0
  -14.6423   11.2020   -0.0624 H   0  0  0  0  0  0  0  0  0  0  0  0
  -15.9170    9.2830   -0.5120 H   0  0  0  0  0  0  0  0  0  0  0  0
  -12.3161   11.5807   -0.9061 H   0  0  0  0  0  0  0  0  0  0  0  0
  -11.8484   10.7137   -2.4081 H   0  0  0  0  0  0  0  0  0  0  0  0
  -13.2755   11.8045   -2.4081 H   0  0  0  0  0  0  0  0  0  0  0  0
  -15.7145    9.8007   -1.9470 H   0  0  0  0  0  0  0  0  0  0  0  0
  -14.7021   10.7459   -3.0908 H   0  0  0  0  0  0  0  0  0  0  0  0
  -14.6203    8.9515   -3.0908 H   0  0  0  0  0  0  0  0  0  0  0  0
  -11.5961    6.1935    1.7145 H   0  0  0  0  0  0  0  0  0  0  0  0
  -12.7626    6.1096    0.3511 H   0  0  0  0  0  0  0  0  0  0  0  0
  -11.3041    5.0611    0.3511 H   0  0  0  0  0  0  0  0  0  0  0  0
   -9.8511    8.1452    1.5089 H   0  0  0  0  0  0  0  0  0  0  0  0
   -9.2937    6.4278    1.0921 H   0  0  0  0  0  0  0  0  0  0  0  0
   -8.5635    9.0039   -0.3284 H   0  0  0  0  0  0  0  0  0  0  0  0
   -7.4954    7.8976    0.6209 H   0  0  0  0  0  0  0  0  0  0  0  0
   -7.7463    5.6212    0.2548 H   0  0  0  0  0  0  0  0  0  0  0  0
   -8.5178    4.9779   -1.2344 H   0  0  0  0  0  0  0  0  0  0  0  0
   -6.7691    5.3887   -1.2344 H   0  0  0  0  0  0  0  0  0  0  0  0
  1  2  1  0
  2  3  1  0
  3  4  1  0
  4  5  1  0
  5  6  1  0
  6  7  1  0
  7  8  1  0
  7  9  1  0
  2 10  1  0
 10 11  1  0
 11 12  1  0
 12 13  1  0
 13 14  1  6
 13 15  1  0
 15 16  1  0
 16 17  1  0
 17 18  2  0
 18 19  1  0
 19 20  1  0
 20 21  1  0
 21 22  1  0
 22 23  1  0
 22 24  1  0
 24 25  1  0
 24 26  1  0
 19 27  1  0
 27 28  1  1
 27 29  1  0
 29 30  1  0
 30 31  1  0
 31 32  1  1
  7  5  1  0
 31 10  1  0
 31 13  1  0
 27 15  1  0
 24 18  1  0
  1 33  1  0
  1 34  1  0
  1 35  1  0
  2 36  1  1
  3 37  1  0
  3 38  1  0
  4 39  1  0
  4 40  1  0
  5 41  1  1
  8 42  1  0
  8 43  1  0
  8 44  1  0
  9 45  1  0
  9 46  1  0
  9 47  1  0
 10 48  1  6
 11 49  1  0
 11 50  1  0
 12 51  1  0
 12 52  1  0
 14 53  1  0
 14 54  1  0
 14 55  1  0
 15 56  1  1
 16 57  1  0
 16 58  1  0
 17 59  1  0
 19 60  1  6
 20 61  1  0
 20 62  1  0
 21 63  1  0
 21 64  1  0
 22 65  1  6
 23 66  1  0
 25 67  1  0
 25 68  1  0
 25 69  1  0
 26 70  1  0
 26 71  1  0
 26 72  1  0
 28 73  1  0
 28 74  1  0
 28 75  1  0
 29 76  1  0
 29 77  1  0
 30 78  1  0
 30 79  1  0
 32 80  1  0
 32 81  1  0
 32 82  1  0
M  END
>  <meeko>  (8) 
{"is_sidechain": [false], "intermolecular_energy": 2.731, "internal_energy": -0.839}

$$$$
EPH_relaxed_0001_pdb2pqr_Repair_41_r2_0001_out
     RDKit          3D

 82 86  0  0  0  0  0  0  0  0999 V2000
   -5.1640    5.9210   -1.6290 C   0  0  0  0  0  0  0  0  0  0  0  0
   -5.4480    7.4170   -1.7870 C   0  0  2  0  0  0  0  0  0  0  0  0
   -5.1920    8.1980   -0.4830 C   0  0  0  0  0  0  0  0  0  0  0  0
   -4.1980    9.3520   -0.6410 C   0  0  0  0  0  0  0  0  0  0  0  0
   -2.7890    8.9100   -0.3850 C   0  0  2  0  0  0  0  0  0  0  0  0
   -2.1230    9.6170    0.6690 O   0  0  0  0  0  0  0  0  0  0  0  0
   -1.5770    9.7830   -0.6490 C   0  0  0  0  0  0  0  0  0  0  0  0
   -1.7180   11.1690   -1.1960 C   0  0  0  0  0  0  0  0  0  0  0  0
   -0.2470    9.1220   -0.8390 C   0  0  0  0  0  0  0  0  0  0  0  0
   -6.8860    7.6280   -2.2470 C   0  0  1  0  0  0  0  0  0  0  0  0
   -7.1910    6.9270   -3.5970 C   0  0  0  0  0  0  0  0  0  0  0  0
   -8.6600    6.4380   -3.5260 C   0  0  0  0  0  0  0  0  0  0  0  0
   -9.2500    7.1560   -2.2900 C   0  0  1  0  0  0  0  0  0  0  0  0
   -9.6180    8.5870   -2.7940 C   0  0  0  0  0  0  0  0  0  0  0  0
  -10.4670    6.4570   -1.6000 C   0  0  2  0  0  0  0  0  0  0  0  0
  -11.7230    6.3170   -2.4790 C   0  0  0  0  0  0  0  0  0  0  0  0
  -12.6880    7.4520   -2.3960 C   0  0  0  0  0  0  0  0  0  0  0  0
  -12.6980    8.4030   -1.4430 C   0  0  0  0  0  0  0  0  0  0  0  0
  -11.7290    8.3380   -0.2560 C   0  0  1  0  0  0  0  0  0  0  0  0
  -12.5040    8.6120    1.0600 C   0  0  0  0  0  0  0  0  0  0  0  0
  -13.2870    9.9200    1.0170 C   0  0  0  0  0  0  0  0  0  0  0  0
  -14.2810    9.9230   -0.1420 C   0  0  2  0  0  0  0  0  0  0  0  0
  -15.2870    8.9380    0.1120 O   0  0  0  0  0  0  0  0  0  0  0  0
  -13.6160    9.6480   -1.5200 C   0  0  0  0  0  0  0  0  0  0  0  0
  -12.7520   10.8640   -1.9330 C   0  0  0  0  0  0  0  0  0  0  0  0
  -14.7450    9.5370   -2.5800 C   0  0  0  0  0  0  0  0  0  0  0  0
  -10.8230    7.0350   -0.1710 C   0  0  1  0  0  0  0  0  0  0  0  0
  -11.5830    5.9060    0.5900 C   0  0  0  0  0  0  0  0  0  0  0  0
   -9.5380    7.3570    0.6810 C   0  0  0  0  0  0  0  0  0  0  0  0
   -8.3280    7.9350   -0.0780 C   0  0  0  0  0  0  0  0  0  0  0  0
   -8.0120    7.1000   -1.3230 C   0  0  2  0  0  0  0  0  0  0  0  0
   -7.6170    5.6610   -0.8460 C   0  0  0  0  0  0  0  0  0  0  0  0
   -5.1159    5.6679   -0.5596 H   0  0  0  0  0  0  0  0  0  0  0  0
   -5.9684    5.3426   -2.1069 H   0  0  0  0  0  0  0  0  0  0  0  0
   -4.2036    5.6776   -2.1069 H   0  0  0  0  0  0  0  0  0  0  0  0
   -4.7540    7.8065   -2.5464 H   0  0  0  0  0  0  0  0  0  0  0  0
   -6.1494    8.6101   -0.1315 H   0  0  0  0  0  0  0  0  0  0  0  0
   -4.7509    7.4900    0.2341 H   0  0  0  0  0  0  0  0  0  0  0  0
   -4.2676    9.7444   -1.6663 H   0  0  0  0  0  0  0  0  0  0  0  0
   -4.4532   10.1273    0.0965 H   0  0  0  0  0  0  0  0  0  0  0  0
   -3.0336    7.8790   -0.6802 H   0  0  0  0  0  0  0  0  0  0  0  0
   -1.7909   11.8856   -0.3647 H   0  0  0  0  0  0  0  0  0  0  0  0
   -0.8398   11.4109   -1.8127 H   0  0  0  0  0  0  0  0  0  0  0  0
   -2.6269   11.2291   -1.8127 H   0  0  0  0  0  0  0  0  0  0  0  0
    0.1965    8.9016    0.1432 H   0  0  0  0  0  0  0  0  0  0  0  0
   -0.3800    8.1851   -1.3999 H   0  0  0  0  0  0  0  0  0  0  0  0
    0.4195    9.7937   -1.3999 H   0  0  0  0  0  0  0  0  0  0  0  0
   -6.9095    8.7273   -2.2800 H   0  0  0  0  0  0  0  0  0  0  0  0
   -7.0679    7.6366   -4.4284 H   0  0  0  0  0  0  0  0  0  0  0  0
   -6.5031    6.0861   -3.7693 H   0  0  0  0  0  0  0  0  0  0  0  0
   -9.2078    6.7200   -4.4373 H   0  0  0  0  0  0  0  0  0  0  0  0
   -8.7322    5.3432   -3.4468 H   0  0  0  0  0  0  0  0  0  0  0  0
   -9.7878    9.2474   -1.9308 H   0  0  0  0  0  0  0  0  0  0  0  0
   -8.7929    8.9847   -3.4032 H   0  0  0  0  0  0  0  0  0  0  0  0
  -10.5326    8.5373   -3.4032 H   0  0  0  0  0  0  0  0  0  0  0  0
  -10.0943    5.4337   -1.4455 H   0  0  0  0  0  0  0  0  0  0  0  0
  -11.3970    6.2237   -3.5254 H   0  0  0  0  0  0  0  0  0  0  0  0
  -12.2598    5.4328   -2.1046 H   0  0  0  0  0  0  0  0  0  0  0  0
  -13.4567    7.5173   -3.1802 H   0  0  0  0  0  0  0  0  0  0  0  0
  -10.9871    9.1324   -0.4248 H   0  0  0  0  0  0  0  0  0  0  0  0
  -13.2084    7.7850    1.2329 H   0  0  0  0  0  0  0  0  0  0  0  0
  -11.7657    8.6918    1.8715 H   0  0  0  0  0  0  0  0  0  0  0  0
  -13.8359   10.0422    1.9624 H   0  0  0  0  0  0  0  0  0  0  0  0
  -12.5782   10.7490    0.8739 H   0  0  0  0  0  0  0  0  0  0  0  0
  -14.7175   10.9310   -0.2003 H   0  0  0  0  0  0  0  0  0  0  0  0
  -16.0600    9.3960    0.4840 H   0  0  0  0  0  0  0  0  0  0  0  0
  -12.3870   11.3776   -1.0313 H   0  0  0  0  0  0  0  0  0  0  0  0
  -11.8953   10.5191   -2.5306 H   0  0  0  0  0  0  0  0  0  0  0  0
  -13.3596   11.5595   -2.5306 H   0  0  0  0  0  0  0  0  0  0  0  0
  -15.7163    9.4415   -2.0726 H   0  0  0  0  0  0  0  0  0  0  0  0
  -14.7472   10.4393   -3.2092 H   0  0  0  0  0  0  0  0  0  0  0  0
  -14.5714    8.6516   -3.2092 H   0  0  0  0  0  0  0  0  0  0  0  0
  -11.4791    6.0604    1.6741 H   0  0  0  0  0  0  0  0  0  0  0  0
  -12.6481    5.9321    0.3164 H   0  0  0  0  0  0  0  0  0  0  0  0
  -11.1580    4.9290    0.3164 H   0  0  0  0  0  0  0  0  0  0  0  0
   -9.8250    8.0854    1.4537 H   0  0  0  0  0  0  0  0  0  0  0  0
   -9.1978    6.3849    1.0674 H   0  0  0  0  0  0  0  0  0  0  0  0
   -8.5550    8.9667   -0.3847 H   0  0  0  0  0  0  0  0  0  0  0  0
   -7.4535    7.9152    0.5889 H   0  0  0  0  0  0  0  0  0  0  0  0
   -7.6081    5.6287    0.2535 H   0  0  0  0  0  0  0  0  0  0  0  0
   -8.3489    4.9342   -1.2283 H   0  0  0  0  0  0  0  0  0  0  0  0
   -6.6166    5.4097   -1.2283 H   0  0  0  0  0  0  0  0  0  0  0  0
  1  2  1  0
  2  3  1  0
  3  4  1  0
  4  5  1  0
  5  6  1  0
  6  7  1  0
  7  8  1  0
  7  9  1  0
  2 10  1  0
 10 11  1  0
 11 12  1  0
 12 13  1  0
 13 14  1  6
 13 15  1  0
 15 16  1  0
 16 17  1  0
 17 18  2  0
 18 19  1  0
 19 20  1  0
 20 21  1  0
 21 22  1  0
 22 23  1  0
 22 24  1  0
 24 25  1  0
 24 26  1  0
 19 27  1  0
 27 28  1  1
 27 29  1  0
 29 30  1  0
 30 31  1  0
 31 32  1  1
  7  5  1  0
 31 10  1  0
 31 13  1  0
 27 15  1  0
 24 18  1  0
  1 33  1  0
  1 34  1  0
  1 35  1  0
  2 36  1  6
  3 37  1  0
  3 38  1  0
  4 39  1  0
  4 40  1  0
  5 41  1  1
  8 42  1  0
  8 43  1  0
  8 44  1  0
  9 45  1  0
  9 46  1  0
  9 47  1  0
 10 48  1  6
 11 49  1  0
 11 50  1  0
 12 51  1  0
 12 52  1  0
 14 53  1  0
 14 54  1  0
 14 55  1  0
 15 56  1  1
 16 57  1  0
 16 58  1  0
 17 59  1  0
 19 60  1  6
 20 61  1  0
 20 62  1  0
 21 63  1  0
 21 64  1  0
 22 65  1  6
 23 66  1  0
 25 67  1  0
 25 68  1  0
 25 69  1  0
 26 70  1  0
 26 71  1  0
 26 72  1  0
 28 73  1  0
 28 74  1  0
 28 75  1  0
 29 76  1  0
 29 77  1  0
 30 78  1  0
 30 79  1  0
 32 80  1  0
 32 81  1  0
 32 82  1  0
M  END
>  <meeko>  (9) 
{"is_sidechain": [false], "intermolecular_energy": 2.731, "internal_energy": -0.839}

$$$$
EPH_relaxed_0001_pdb2pqr_Repair_41_r2_0001_out
     RDKit          3D

 82 86  0  0  0  0  0  0  0  0999 V2000
    0.4630    8.8290   -2.3880 C   0  0  0  0  0  0  0  0  0  0  0  0
    1.2050    9.9760   -3.0800 C   0  0  2  0  0  0  0  0  0  0  0  0
    2.7040    9.9980   -2.7210 C   0  0  0  0  0  0  0  0  0  0  0  0
    3.5890   10.6090   -3.8100 C   0  0  0  0  0  0  0  0  0  0  0  0
    4.9880   10.8400   -3.3240 C   0  0  2  0  0  0  0  0  0  0  0  0
    5.5950   12.0500   -3.7980 O   0  0  0  0  0  0  0  0  0  0  0  0
    6.2030   10.8220   -4.2310 C   0  0  0  0  0  0  0  0  0  0  0  0
    6.0770   10.5660   -5.7000 C   0  0  0  0  0  0  0  0  0  0  0  0
    7.5470   10.5690   -3.6230 C   0  0  0  0  0  0  0  0  0  0  0  0
    0.5610   11.3070   -2.7130 C   0  0  1  0  0  0  0  0  0  0  0  0
   -0.8180   11.1340   -2.0220 C   0  0  0  0  0  0  0  0  0  0  0  0
   -0.9400   12.2710   -0.9760 C   0  0  0  0  0  0  0  0  0  0  0  0
    0.2080   13.2470   -1.3250 C   0  0  1  0  0  0  0  0  0  0  0  0
   -0.3400   14.1050   -2.5080 C   0  0  0  0  0  0  0  0  0  0  0  0
    0.7320   14.1430   -0.1560 C   0  0  2  0  0  0  0  0  0  0  0  0
   -0.3030   15.1160    0.4350 C   0  0  0  0  0  0  0  0  0  0  0  0
   -0.3490   16.4650   -0.2040 C   0  0  0  0  0  0  0  0  0  0  0  0
    0.5940   16.9780   -1.0160 C   0  0  0  0  0  0  0  0  0  0  0  0
    1.8990   16.2170   -1.2870 C   0  0  1  0  0  0  0  0  0  0  0  0
    3.1020   17.1870   -1.1520 C   0  0  0  0  0  0  0  0  0  0  0  0
    2.9560   18.4260   -2.0300 C   0  0  0  0  0  0  0  0  0  0  0  0
    1.6770   19.1870   -1.6900 C   0  0  2  0  0  0  0  0  0  0  0  0
    1.7970   19.7250   -0.3700 O   0  0  0  0  0  0  0  0  0  0  0  0
    0.3980   18.3080   -1.7830 C   0  0  0  0  0  0  0  0  0  0  0  0
    0.1020   17.9760   -3.2660 C   0  0  0  0  0  0  0  0  0  0  0  0
   -0.8020   19.1560   -1.2810 C   0  0  0  0  0  0  0  0  0  0  0  0
    2.1020   14.8740   -0.4620 C   0  0  1  0  0  0  0  0  0  0  0  0
    2.7570   15.1900    0.9170 C   0  0  0  0  0  0  0  0  0  0  0  0
    3.1150   13.9460   -1.2320 C   0  0  0  0  0  0  0  0  0  0  0  0
    2.5210   12.9970   -2.2910 C   0  0  0  0  0  0  0  0  0  0  0  0
    1.3290   12.2200   -1.7250 C   0  0  2  0  0  0  0  0  0  0  0  0
    1.8540   11.3310   -0.5470 C   0  0  0  0  0  0  0  0  0  0  0  0
    0.5399    8.9479   -1.2971 H   0  0  0  0  0  0  0  0  0  0  0  0
   -0.5960    8.8455   -2.6849 H   0  0  0  0  0  0  0  0  0  0  0  0
    0.9122    7.8698   -2.6849 H   0  0  0  0  0  0  0  0  0  0  0  0
    1.1286    9.8131   -4.1652 H   0  0  0  0  0  0  0  0  0  0  0  0
    2.8318   10.5853   -1.7997 H   0  0  0  0  0  0  0  0  0  0  0  0
    3.0206    8.9516   -2.5993 H   0  0  0  0  0  0  0  0  0  0  0  0
    3.6192    9.9243   -4.6704 H   0  0  0  0  0  0  0  0  0  0  0  0
    3.1603   11.5813   -4.0942 H   0  0  0  0  0  0  0  0  0  0  0  0
    4.7677   10.3273   -2.3761 H   0  0  0  0  0  0  0  0  0  0  0  0
    5.5966    9.5899   -5.8622 H   0  0  0  0  0  0  0  0  0  0  0  0
    5.4651   11.3566   -6.1588 H   0  0  0  0  0  0  0  0  0  0  0  0
    7.0767   10.5634   -6.1588 H   0  0  0  0  0  0  0  0  0  0  0  0
    7.4622   10.5850   -2.5264 H   0  0  0  0  0  0  0  0  0  0  0  0
    7.9171    9.5854   -3.9479 H   0  0  0  0  0  0  0  0  0  0  0  0
    8.2494   11.3507   -3.9479 H   0  0  0  0  0  0  0  0  0  0  0  0
    0.5255   11.7746   -3.7080 H   0  0  0  0  0  0  0  0  0  0  0  0
   -1.6261   11.2137   -2.7640 H   0  0  0  0  0  0  0  0  0  0  0  0
   -0.8988   10.1469   -1.5434 H   0  0  0  0  0  0  0  0  0  0  0  0
   -1.9153   12.7728   -1.0598 H   0  0  0  0  0  0  0  0  0  0  0  0
   -0.8706   11.8974    0.0563 H   0  0  0  0  0  0  0  0  0  0  0  0
   -0.8919   14.9691   -2.1094 H   0  0  0  0  0  0  0  0  0  0  0  0
    0.4998   14.4588   -3.1242 H   0  0  0  0  0  0  0  0  0  0  0  0
   -1.0141   13.4919   -3.1242 H   0  0  0  0  0  0  0  0  0  0  0  0
    0.9337   13.4042    0.6336 H   0  0  0  0  0  0  0  0  0  0  0  0
   -1.2976   14.6575    0.3326 H   0  0  0  0  0  0  0  0  0  0  0  0
   -0.0004   15.2844    1.4791 H   0  0  0  0  0  0  0  0  0  0  0  0
   -1.2277   17.0923    0.0067 H   0  0  0  0  0  0  0  0  0  0  0  0
    1.8289   15.8519   -2.3223 H   0  0  0  0  0  0  0  0  0  0  0  0
    3.1816   17.5061   -0.1023 H   0  0  0  0  0  0  0  0  0  0  0  0
    4.0032   16.6490   -1.4811 H   0  0  0  0  0  0  0  0  0  0  0  0
    3.8213   19.0857   -1.8687 H   0  0  0  0  0  0  0  0  0  0  0  0
    2.9064   18.1076   -3.0817 H   0  0  0  0  0  0  0  0  0  0  0  0
    1.5617   19.9877   -2.4354 H   0  0  0  0  0  0  0  0  0  0  0  0
    1.4410   20.6290   -0.3870 H   0  0  0  0  0  0  0  0  0  0  0  0
   -0.6292   17.1559   -3.3193 H   0  0  0  0  0  0  0  0  0  0  0  0
   -0.3080   18.8658   -3.7662 H   0  0  0  0  0  0  0  0  0  0  0  0
    1.0328   17.6704   -3.7662 H   0  0  0  0  0  0  0  0  0  0  0  0
   -0.8115   19.1627   -0.1811 H   0  0  0  0  0  0  0  0  0  0  0  0
   -0.7039   20.1865   -1.6532 H   0  0  0  0  0  0  0  0  0  0  0  0
   -1.7406   18.7195   -1.6532 H   0  0  0  0  0  0  0  0  0  0  0  0
    2.0848   14.8657    1.7251 H   0  0  0  0  0  0  0  0  0  0  0  0
    3.7144   14.6547    0.9994 H   0  0  0  0  0  0  0  0  0  0  0  0
    2.9339   16.2725    0.9994 H   0  0  0  0  0  0  0  0  0  0  0  0
    3.8429   14.5965   -1.7390 H   0  0  0  0  0  0  0  0  0  0  0  0
    3.5433   13.2867   -0.4626 H   0  0  0  0  0  0  0  0  0  0  0  0
    2.1869   13.5879   -3.1565 H   0  0  0  0  0  0  0  0  0  0  0  0
    3.2971   12.2778   -2.5917 H   0  0  0  0  0  0  0  0  0  0  0  0
    1.5803   11.7945    0.4123 H   0  0  0  0  0  0  0  0  0  0  0  0
    1.4018   10.3304   -0.6130 H   0  0  0  0  0  0  0  0  0  0  0  0
    2.9485   11.2438   -0.6130 H   0  0  0  0  0  0  0  0  0  0  0  0
  1  2  1  0
  2  3  1  0
  3  4  1  0
  4  5  1  0
  5  6  1  0
  6  7  1  0
  7  8  1  0
  7  9  1  0
  2 10  1  0
 10 11  1  0
 11 12  1  0
 12 13  1  0
 13 14  1  6
 13 15  1  0
 15 16  1  0
 16 17  1  0
 17 18  2  0
 18 19  1  0
 19 20  1  0
 20 21  1  0
 21 22  1  0
 22 23  1  0
 22 24  1  0
 24 25  1  0
 24 26  1  0
 19 27  1  0
 27 28  1  1
 27 29  1  0
 29 30  1  0
 30 31  1  0
 31 32  1  1
  7  5  1  0
 31 10  1  0
 31 13  1  0
 27 15  1  0
 24 18  1  0
  1 33  1  0
  1 34  1  0
  1 35  1  0
  2 36  1  6
  3 37  1  0
  3 38  1  0
  4 39  1  0
  4 40  1  0
  5 41  1  1
  8 42  1  0
  8 43  1  0
  8 44  1  0
  9 45  1  0
  9 46  1  0
  9 47  1  0
 10 48  1  6
 11 49  1  0
 11 50  1  0
 12 51  1  0
 12 52  1  0
 14 53  1  0
 14 54  1  0
 14 55  1  0
 15 56  1  1
 16 57  1  0
 16 58  1  0
 17 59  1  0
 19 60  1  6
 20 61  1  0
 20 62  1  0
 21 63  1  0
 21 64  1  0
 22 65  1  6
 23 66  1  0
 25 67  1  0
 25 68  1  0
 25 69  1  0
 26 70  1  0
 26 71  1  0
 26 72  1  0
 28 73  1  0
 28 74  1  0
 28 75  1  0
 29 76  1  0
 29 77  1  0
 30 78  1  0
 30 79  1  0
 32 80  1  0
 32 81  1  0
 32 82  1  0
M  END
>  <meeko>  (10) 
{"is_sidechain": [false], "intermolecular_energy": 2.731, "internal_energy": -0.839}

$$$$
EPH_relaxed_0001_pdb2pqr_Repair_41_r2_0001_out
     RDKit          3D

 82 86  0  0  0  0  0  0  0  0999 V2000
    2.6390   19.4260   -0.8280 C   0  0  0  0  0  0  0  0  0  0  0  0
    2.5200   18.4690   -2.0170 C   0  0  2  0  0  0  0  0  0  0  0  0
    1.1330   18.5450   -2.6860 C   0  0  0  0  0  0  0  0  0  0  0  0
    0.2570   19.6850   -2.1600 C   0  0  0  0  0  0  0  0  0  0  0  0
   -1.0290   19.1750   -1.5820 C   0  0  2  0  0  0  0  0  0  0  0  0
   -1.9750   20.1940   -1.2350 O   0  0  0  0  0  0  0  0  0  0  0  0
   -1.4540   19.4160   -0.1450 C   0  0  0  0  0  0  0  0  0  0  0  0
   -0.5960   20.1940    0.8020 C   0  0  0  0  0  0  0  0  0  0  0  0
   -2.4580   18.4910    0.4690 C   0  0  0  0  0  0  0  0  0  0  0  0
    2.8040   17.0410   -1.5660 C   0  0  1  0  0  0  0  0  0  0  0  0
    3.5940   16.9820   -0.2320 C   0  0  0  0  0  0  0  0  0  0  0  0
    3.0810   15.7380    0.5380 C   0  0  0  0  0  0  0  0  0  0  0  0
    2.2640   14.9430   -0.5080 C   0  0  1  0  0  0  0  0  0  0  0  0
    3.3280   14.1510   -1.3310 C   0  0  0  0  0  0  0  0  0  0  0  0
    1.1520   14.0000    0.0570 C   0  0  2  0  0  0  0  0  0  0  0  0
    1.6590   12.8580    0.9550 C   0  0  0  0  0  0  0  0  0  0  0  0
    1.9860   11.5850    0.2460 C   0  0  0  0  0  0  0  0  0  0  0  0
    1.6120   11.2710   -1.0080 C   0  0  0  0  0  0  0  0  0  0  0  0
    0.6970   12.2020   -1.8140 C   0  0  1  0  0  0  0  0  0  0  0  0
   -0.4280   11.3690   -2.4840 C   0  0  0  0  0  0  0  0  0  0  0  0
    0.1170   10.2170   -3.3220 C   0  0  0  0  0  0  0  0  0  0  0  0
    0.9730    9.2820   -2.4730 C   0  0  2  0  0  0  0  0  0  0  0  0
    0.1340    8.6310   -1.5140 O   0  0  0  0  0  0  0  0  0  0  0  0
    2.1350   10.0110   -1.7410 C   0  0  0  0  0  0  0  0  0  0  0  0
    3.2020   10.4560   -2.7720 C   0  0  0  0  0  0  0  0  0  0  0  0
    2.8330    8.9820   -0.8100 C   0  0  0  0  0  0  0  0  0  0  0  0
    0.1370   13.4690   -1.0350 C   0  0  1  0  0  0  0  0  0  0  0  0
   -1.1740   13.0920   -0.2790 C   0  0  0  0  0  0  0  0  0  0  0  0
   -0.2560   14.5810   -2.0780 C   0  0  0  0  0  0  0  0  0  0  0  0
    0.8570   15.5570   -2.5060 C   0  0  0  0  0  0  0  0  0  0  0  0
    1.5840   16.1280   -1.2850 C   0  0  2  0  0  0  0  0  0  0  0  0
    0.5440   16.9490   -0.4490 C   0  0  0  0  0  0  0  0  0  0  0  0
    2.5681   18.8559    0.1101 H   0  0  0  0  0  0  0  0  0  0  0  0
    3.6085   19.9440   -0.8699 H   0  0  0  0  0  0  0  0  0  0  0  0
    1.8259   20.1657   -0.8699 H   0  0  0  0  0  0  0  0  0  0  0  0
    3.2650   18.7767   -2.7656 H   0  0  0  0  0  0  0  0  0  0  0  0
    1.2764   18.6879   -3.7672 H   0  0  0  0  0  0  0  0  0  0  0  0
    0.6116   17.6051   -2.4521 H   0  0  0  0  0  0  0  0  0  0  0  0
    0.8090   20.2271   -1.3781 H   0  0  0  0  0  0  0  0  0  0  0  0
    0.0146   20.3483   -3.0034 H   0  0  0  0  0  0  0  0  0  0  0  0
   -0.9667   18.2601   -2.1895 H   0  0  0  0  0  0  0  0  0  0  0  0
   -0.8720   19.9437    1.8370 H   0  0  0  0  0  0  0  0  0  0  0  0
    0.4607   19.9398    0.6327 H   0  0  0  0  0  0  0  0  0  0  0  0
   -0.7459   21.2705    0.6327 H   0  0  0  0  0  0  0  0  0  0  0  0
   -2.3911   18.5527    1.5652 H   0  0  0  0  0  0  0  0  0  0  0  0
   -3.4689   18.7808    0.1465 H   0  0  0  0  0  0  0  0  0  0  0  0
   -2.2518   17.4598    0.1465 H   0  0  0  0  0  0  0  0  0  0  0  0
    3.3527   16.6752   -2.4464 H   0  0  0  0  0  0  0  0  0  0  0  0
    4.6710   16.8849   -0.4337 H   0  0  0  0  0  0  0  0  0  0  0  0
    3.4444   17.8995    0.3561 H   0  0  0  0  0  0  0  0  0  0  0  0
    3.9235   15.1373    0.9112 H   0  0  0  0  0  0  0  0  0  0  0  0
    2.4802   16.0100    1.4184 H   0  0  0  0  0  0  0  0  0  0  0  0
    4.0165   13.6385   -0.6431 H   0  0  0  0  0  0  0  0  0  0  0  0
    2.8223   13.4077   -1.9649 H   0  0  0  0  0  0  0  0  0  0  0  0
    3.8949   14.8487   -1.9649 H   0  0  0  0  0  0  0  0  0  0  0  0
    0.5866   14.6721    0.7193 H   0  0  0  0  0  0  0  0  0  0  0  0
    2.5691   13.2059    1.4657 H   0  0  0  0  0  0  0  0  0  0  0  0
    0.8321   12.6204    1.6404 H   0  0  0  0  0  0  0  0  0  0  0  0
    2.5827   10.8416    0.7949 H   0  0  0  0  0  0  0  0  0  0  0  0
    1.3328   12.6600   -2.5860 H   0  0  0  0  0  0  0  0  0  0  0  0
   -1.0773   10.9566   -1.6977 H   0  0  0  0  0  0  0  0  0  0  0  0
   -0.9830   12.0385   -3.1577 H   0  0  0  0  0  0  0  0  0  0  0  0
   -0.7252    9.6495   -3.7447 H   0  0  0  0  0  0  0  0  0  0  0  0
    0.7426   10.6328   -4.1255 H   0  0  0  0  0  0  0  0  0  0  0  0
    1.4383    8.5531   -3.1528 H   0  0  0  0  0  0  0  0  0  0  0  0
   -0.7610    8.5850   -1.8910 H   0  0  0  0  0  0  0  0  0  0  0  0
    4.0916   10.8270   -2.2420 H   0  0  0  0  0  0  0  0  0  0  0  0
    3.4817    9.5995   -3.4031 H   0  0  0  0  0  0  0  0  0  0  0  0
    2.7903   11.2574   -3.4031 H   0  0  0  0  0  0  0  0  0  0  0  0
    2.6488    9.2535    0.2399 H   0  0  0  0  0  0  0  0  0  0  0  0
    2.4290    7.9777   -1.0053 H   0  0  0  0  0  0  0  0  0  0  0  0
    3.9155    8.9861   -1.0053 H   0  0  0  0  0  0  0  0  0  0  0  0
   -0.9991   13.1423    0.8058 H   0  0  0  0  0  0  0  0  0  0  0  0
   -1.9720   13.7971   -0.5548 H   0  0  0  0  0  0  0  0  0  0  0  0
   -1.4756   12.0707   -0.5548 H   0  0  0  0  0  0  0  0  0  0  0  0
   -0.6202   14.0739   -2.9836 H   0  0  0  0  0  0  0  0  0  0  0  0
   -1.0040   15.2042   -1.5660 H   0  0  0  0  0  0  0  0  0  0  0  0
    1.5810   15.0224   -3.1385 H   0  0  0  0  0  0  0  0  0  0  0  0
    0.3999   16.3883   -3.0628 H   0  0  0  0  0  0  0  0  0  0  0  0
    0.7350   16.7982    0.6238 H   0  0  0  0  0  0  0  0  0  0  0  0
    0.6399   18.0176   -0.6919 H   0  0  0  0  0  0  0  0  0  0  0  0
   -0.4731   16.6076   -0.6919 H   0  0  0  0  0  0  0  0  0  0  0  0
  1  2  1  0
  2  3  1  0
  3  4  1  0
  4  5  1  0
  5  6  1  0
  6  7  1  0
  7  8  1  0
  7  9  1  0
  2 10  1  0
 10 11  1  0
 11 12  1  0
 12 13  1  0
 13 14  1  6
 13 15  1  0
 15 16  1  0
 16 17  1  0
 17 18  2  0
 18 19  1  0
 19 20  1  0
 20 21  1  0
 21 22  1  0
 22 23  1  0
 22 24  1  0
 24 25  1  0
 24 26  1  0
 19 27  1  0
 27 28  1  1
 27 29  1  0
 29 30  1  0
 30 31  1  0
 31 32  1  1
  7  5  1  0
 31 10  1  0
 31 13  1  0
 27 15  1  0
 24 18  1  0
  1 33  1  0
  1 34  1  0
  1 35  1  0
  2 36  1  6
  3 37  1  0
  3 38  1  0
  4 39  1  0
  4 40  1  0
  5 41  1  6
  8 42  1  0
  8 43  1  0
  8 44  1  0
  9 45  1  0
  9 46  1  0
  9 47  1  0
 10 48  1  6
 11 49  1  0
 11 50  1  0
 12 51  1  0
 12 52  1  0
 14 53  1  0
 14 54  1  0
 14 55  1  0
 15 56  1  1
 16 57  1  0
 16 58  1  0
 17 59  1  0
 19 60  1  6
 20 61  1  0
 20 62  1  0
 21 63  1  0
 21 64  1  0
 22 65  1  6
 23 66  1  0
 25 67  1  0
 25 68  1  0
 25 69  1  0
 26 70  1  0
 26 71  1  0
 26 72  1  0
 28 73  1  0
 28 74  1  0
 28 75  1  0
 29 76  1  0
 29 77  1  0
 30 78  1  0
 30 79  1  0
 32 80  1  0
 32 81  1  0
 32 82  1  0
M  END
>  <meeko>  (11) 
{"is_sidechain": [false], "intermolecular_energy": 2.731, "internal_energy": -0.839}

$$$$
EPH_relaxed_0001_pdb2pqr_Repair_41_r2_0001_out
     RDKit          3D

 82 86  0  0  0  0  0  0  0  0999 V2000
    0.1710   17.7860   -2.5450 C   0  0  0  0  0  0  0  0  0  0  0  0
   -0.0600   16.9030   -1.3150 C   0  0  2  0  0  0  0  0  0  0  0  0
   -0.0930   17.7230   -0.0100 C   0  0  0  0  0  0  0  0  0  0  0  0
    0.5260   19.1170   -0.1430 C   0  0  0  0  0  0  0  0  0  0  0  0
    1.6660   19.3100    0.8110 C   0  0  2  0  0  0  0  0  0  0  0  0
    2.6940   20.1940    0.3430 O   0  0  0  0  0  0  0  0  0  0  0  0
    3.0770   18.8230    0.5380 C   0  0  0  0  0  0  0  0  0  0  0  0
    3.4220   18.1020   -0.7280 C   0  0  0  0  0  0  0  0  0  0  0  0
    3.9980   18.6130    1.6990 C   0  0  0  0  0  0  0  0  0  0  0  0
    1.0230   15.8340   -1.2320 C   0  0  1  0  0  0  0  0  0  0  0  0
    1.2390   15.3140    0.2140 C   0  0  0  0  0  0  0  0  0  0  0  0
    1.5870   13.8080    0.1010 C   0  0  0  0  0  0  0  0  0  0  0  0
    1.8850   13.5880   -1.4010 C   0  0  1  0  0  0  0  0  0  0  0  0
    3.3570   14.0720   -1.5930 C   0  0  0  0  0  0  0  0  0  0  0  0
    1.6790   12.1360   -1.9410 C   0  0  2  0  0  0  0  0  0  0  0  0
    2.5900   11.0690   -1.3080 C   0  0  0  0  0  0  0  0  0  0  0  0
    3.8900   10.8440   -2.0080 C   0  0  0  0  0  0  0  0  0  0  0  0
    4.1910   11.2610   -3.2510 C   0  0  0  0  0  0  0  0  0  0  0  0
    3.1380   11.9520   -4.1270 C   0  0  1  0  0  0  0  0  0  0  0  0
    3.1640   11.3370   -5.5510 C   0  0  0  0  0  0  0  0  0  0  0  0
    4.5540   11.3670   -6.1770 C   0  0  0  0  0  0  0  0  0  0  0  0
    5.5610   10.6200   -5.3060 C   0  0  2  0  0  0  0  0  0  0  0  0
    5.2250    9.2290   -5.3030 O   0  0  0  0  0  0  0  0  0  0  0  0
    5.6170   11.1460   -3.8450 C   0  0  0  0  0  0  0  0  0  0  0  0
    6.2670   12.5520   -3.8230 C   0  0  0  0  0  0  0  0  0  0  0  0
    6.5650   10.2180   -3.0380 C   0  0  0  0  0  0  0  0  0  0  0  0
    1.6720   12.0260   -3.5200 C   0  0  1  0  0  0  0  0  0  0  0  0
    0.8840   10.7270   -3.8720 C   0  0  0  0  0  0  0  0  0  0  0  0
    0.8930   13.2150   -4.1980 C   0  0  0  0  0  0  0  0  0  0  0  0
    1.0420   14.6030   -3.5480 C   0  0  0  0  0  0  0  0  0  0  0  0
    0.7980   14.5300   -2.0370 C   0  0  2  0  0  0  0  0  0  0  0  0
   -0.6820   14.0670   -1.8130 C   0  0  0  0  0  0  0  0  0  0  0  0
    0.4371   18.8031   -2.2214 H   0  0  0  0  0  0  0  0  0  0  0  0
    0.9898   17.3672   -3.1485 H   0  0  0  0  0  0  0  0  0  0  0  0
   -0.7480   17.8218   -3.1485 H   0  0  0  0  0  0  0  0  0  0  0  0
   -1.0445   16.4260   -1.4298 H   0  0  0  0  0  0  0  0  0  0  0  0
   -1.1416   17.8370    0.3020 H   0  0  0  0  0  0  0  0  0  0  0  0
    0.5078   17.1738    0.7299 H   0  0  0  0  0  0  0  0  0  0  0  0
    0.8954   19.2465   -1.1710 H   0  0  0  0  0  0  0  0  0  0  0  0
   -0.2492   19.8607    0.0936 H   0  0  0  0  0  0  0  0  0  0  0  0
    0.9964   19.1841    1.6745 H   0  0  0  0  0  0  0  0  0  0  0  0
    3.8850   17.1344   -0.4844 H   0  0  0  0  0  0  0  0  0  0  0  0
    2.5071   17.9333   -1.3149 H   0  0  0  0  0  0  0  0  0  0  0  0
    4.1274   18.7086   -1.3149 H   0  0  0  0  0  0  0  0  0  0  0  0
    3.4393   18.7404    2.6379 H   0  0  0  0  0  0  0  0  0  0  0  0
    4.4161   17.5965    1.6562 H   0  0  0  0  0  0  0  0  0  0  0  0
    4.8154   19.3478    1.6562 H   0  0  0  0  0  0  0  0  0  0  0  0
    1.8693   16.3956   -1.6543 H   0  0  0  0  0  0  0  0  0  0  0  0
    2.0660   15.8589    0.6928 H   0  0  0  0  0  0  0  0  0  0  0  0
    0.3382   15.4660    0.8268 H   0  0  0  0  0  0  0  0  0  0  0  0
    2.4696   13.5665    0.7114 H   0  0  0  0  0  0  0  0  0  0  0  0
    0.7728   13.1634    0.4635 H   0  0  0  0  0  0  0  0  0  0  0  0
    3.8238   14.2255   -0.6089 H   0  0  0  0  0  0  0  0  0  0  0  0
    3.9226   13.3125   -2.1527 H   0  0  0  0  0  0  0  0  0  0  0  0
    3.3616   15.0190   -2.1527 H   0  0  0  0  0  0  0  0  0  0  0  0
    0.6601   11.9003   -1.5999 H   0  0  0  0  0  0  0  0  0  0  0  0
    2.8090   11.3782   -0.2753 H   0  0  0  0  0  0  0  0  0  0  0  0
    2.0392   10.1192   -1.3759 H   0  0  0  0  0  0  0  0  0  0  0  0
    4.6672   10.2904   -1.4607 H   0  0  0  0  0  0  0  0  0  0  0  0
    3.4291   13.0118   -4.1736 H   0  0  0  0  0  0  0  0  0  0  0  0
    2.8278   10.2915   -5.4895 H   0  0  0  0  0  0  0  0  0  0  0  0
    2.4991   11.9401   -6.1867 H   0  0  0  0  0  0  0  0  0  0  0  0
    4.5128   10.8915   -7.1681 H   0  0  0  0  0  0  0  0  0  0  0  0
    4.8763   12.4149   -6.2662 H   0  0  0  0  0  0  0  0  0  0  0  0
    6.5586   10.7876   -5.7381 H   0  0  0  0  0  0  0  0  0  0  0  0
    5.8600    8.7740   -4.7250 H   0  0  0  0  0  0  0  0  0  0  0  0
    6.4147   12.8714   -2.7808 H   0  0  0  0  0  0  0  0  0  0  0  0
    7.2392   12.5146   -4.3363 H   0  0  0  0  0  0  0  0  0  0  0  0
    5.6087   13.2684   -4.3363 H   0  0  0  0  0  0  0  0  0  0  0  0
    6.4037   10.3759   -1.9614 H   0  0  0  0  0  0  0  0  0  0  0  0
    6.3532    9.1685   -3.2905 H   0  0  0  0  0  0  0  0  0  0  0  0
    7.6097   10.4522   -3.2905 H   0  0  0  0  0  0  0  0  0  0  0  0
    0.5773   10.2215   -2.9444 H   0  0  0  0  0  0  0  0  0  0  0  0
   -0.0085   10.9875   -4.4599 H   0  0  0  0  0  0  0  0  0  0  0  0
    1.5273   10.0558   -4.4599 H   0  0  0  0  0  0  0  0  0  0  0  0
    1.2457   13.2945   -5.2369 H   0  0  0  0  0  0  0  0  0  0  0  0
   -0.1716   12.9598   -4.0908 H   0  0  0  0  0  0  0  0  0  0  0  0
    2.0597   14.9784   -3.7304 H   0  0  0  0  0  0  0  0  0  0  0  0
    0.2967   15.2798   -3.9914 H   0  0  0  0  0  0  0  0  0  0  0  0
   -0.8868   14.0029   -0.7341 H   0  0  0  0  0  0  0  0  0  0  0  0
   -1.3673   14.7937   -2.2738 H   0  0  0  0  0  0  0  0  0  0  0  0
   -0.8309   13.0793   -2.2738 H   0  0  0  0  0  0  0  0  0  0  0  0
  1  2  1  0
  2  3  1  0
  3  4  1  0
  4  5  1  0
  5  6  1  0
  6  7  1  0
  7  8  1  0
  7  9  1  0
  2 10  1  0
 10 11  1  0
 11 12  1  0
 12 13  1  0
 13 14  1  1
 13 15  1  0
 15 16  1  0
 16 17  1  0
 17 18  2  0
 18 19  1  0
 19 20  1  0
 20 21  1  0
 21 22  1  0
 22 23  1  0
 22 24  1  0
 24 25  1  0
 24 26  1  0
 19 27  1  0
 27 28  1  1
 27 29  1  0
 29 30  1  0
 30 31  1  0
 31 32  1  6
  7  5  1  0
 31 10  1  0
 31 13  1  0
 27 15  1  0
 24 18  1  0
  1 33  1  0
  1 34  1  0
  1 35  1  0
  2 36  1  6
  3 37  1  0
  3 38  1  0
  4 39  1  0
  4 40  1  0
  5 41  1  1
  8 42  1  0
  8 43  1  0
  8 44  1  0
  9 45  1  0
  9 46  1  0
  9 47  1  0
 10 48  1  6
 11 49  1  0
 11 50  1  0
 12 51  1  0
 12 52  1  0
 14 53  1  0
 14 54  1  0
 14 55  1  0
 15 56  1  1
 16 57  1  0
 16 58  1  0
 17 59  1  0
 19 60  1  6
 20 61  1  0
 20 62  1  0
 21 63  1  0
 21 64  1  0
 22 65  1  6
 23 66  1  0
 25 67  1  0
 25 68  1  0
 25 69  1  0
 26 70  1  0
 26 71  1  0
 26 72  1  0
 28 73  1  0
 28 74  1  0
 28 75  1  0
 29 76  1  0
 29 77  1  0
 30 78  1  0
 30 79  1  0
 32 80  1  0
 32 81  1  0
 32 82  1  0
M  END
>  <meeko>  (12) 
{"is_sidechain": [false], "intermolecular_energy": 2.731, "internal_energy": -0.839}

$$$$
EPH_relaxed_0001_pdb2pqr_Repair_41_r2_0001_out
     RDKit          3D

 82 86  0  0  0  0  0  0  0  0999 V2000
   -0.9320   16.3980   -5.8920 C   0  0  0  0  0  0  0  0  0  0  0  0
    0.1720   15.7030   -6.6930 C   0  0  2  0  0  0  0  0  0  0  0  0
   -0.2210   15.5020   -8.1700 C   0  0  0  0  0  0  0  0  0  0  0  0
    0.4290   16.5100   -9.1220 C   0  0  0  0  0  0  0  0  0  0  0  0
    1.8370   16.1230   -9.4620 C   0  0  2  0  0  0  0  0  0  0  0  0
    2.3310   16.6810  -10.6870 O   0  0  0  0  0  0  0  0  0  0  0  0
    2.2010   15.2500  -10.6480 C   0  0  0  0  0  0  0  0  0  0  0  0
    1.1540   14.7090  -11.5700 C   0  0  0  0  0  0  0  0  0  0  0  0
    3.5110   14.5260  -10.6280 C   0  0  0  0  0  0  0  0  0  0  0  0
    0.5090   14.3590   -6.0570 C   0  0  1  0  0  0  0  0  0  0  0  0
    1.7390   13.6780   -6.7150 C   0  0  0  0  0  0  0  0  0  0  0  0
    2.4920   12.9290   -5.5860 C   0  0  0  0  0  0  0  0  0  0  0  0
    1.5060   12.9250   -4.3940 C   0  0  1  0  0  0  0  0  0  0  0  0
    0.5240   11.7480   -4.6910 C   0  0  0  0  0  0  0  0  0  0  0  0
    2.1420   12.8010   -2.9710 C   0  0  2  0  0  0  0  0  0  0  0  0
    2.9120   11.4950   -2.7120 C   0  0  0  0  0  0  0  0  0  0  0  0
    2.1020   10.3790   -2.1400 C   0  0  0  0  0  0  0  0  0  0  0  0
    0.8830   10.5040   -1.5810 C   0  0  0  0  0  0  0  0  0  0  0  0
    0.2400   11.8840   -1.3950 C   0  0  1  0  0  0  0  0  0  0  0  0
   -0.3400   11.9960    0.0390 C   0  0  0  0  0  0  0  0  0  0  0  0
   -1.2980   10.8560    0.3730 C   0  0  0  0  0  0  0  0  0  0  0  0
   -0.6050    9.5030    0.2330 C   0  0  2  0  0  0  0  0  0  0  0  0
    0.4070    9.3970    1.2400 O   0  0  0  0  0  0  0  0  0  0  0  0
    0.0270    9.2810   -1.1690 C   0  0  0  0  0  0  0  0  0  0  0  0
   -1.0930    9.0950   -2.2220 C   0  0  0  0  0  0  0  0  0  0  0  0
    0.8140    7.9430   -1.1310 C   0  0  0  0  0  0  0  0  0  0  0  0
    1.1460   13.1300   -1.7860 C   0  0  1  0  0  0  0  0  0  0  0  0
    2.0260   13.5500   -0.5690 C   0  0  0  0  0  0  0  0  0  0  0  0
    0.2180   14.3600   -2.1080 C   0  0  0  0  0  0  0  0  0  0  0  0
   -0.2810   14.4930   -3.5600 C   0  0  0  0  0  0  0  0  0  0  0  0
    0.8780   14.3570   -4.5520 C   0  0  2  0  0  0  0  0  0  0  0  0
    1.8720   15.5410   -4.2920 C   0  0  0  0  0  0  0  0  0  0  0  0
   -0.7372   16.2754   -4.8164 H   0  0  0  0  0  0  0  0  0  0  0  0
   -0.9476   17.4691   -6.1420 H   0  0  0  0  0  0  0  0  0  0  0  0
   -1.9045   15.9489   -6.1420 H   0  0  0  0  0  0  0  0  0  0  0  0
    1.0565   16.3566   -6.6722 H   0  0  0  0  0  0  0  0  0  0  0  0
    0.0826   14.4899   -8.4756 H   0  0  0  0  0  0  0  0  0  0  0  0
   -1.3087   15.6517   -8.2367 H   0  0  0  0  0  0  0  0  0  0  0  0
   -0.1615   16.5570  -10.0489 H   0  0  0  0  0  0  0  0  0  0  0  0
    0.4539   17.4887   -8.6205 H   0  0  0  0  0  0  0  0  0  0  0  0
    2.1051   16.0687   -8.3966 H   0  0  0  0  0  0  0  0  0  0  0  0
    0.3297   14.2831  -10.9791 H   0  0  0  0  0  0  0  0  0  0  0  0
    0.7690   15.5210  -12.2043 H   0  0  0  0  0  0  0  0  0  0  0  0
    1.5936   13.9252  -12.2043 H   0  0  0  0  0  0  0  0  0  0  0  0
    3.8198   14.3554   -9.5861 H   0  0  0  0  0  0  0  0  0  0  0  0
    3.4035   13.5592  -11.1416 H   0  0  0  0  0  0  0  0  0  0  0  0
    4.2724   15.1314  -11.1416 H   0  0  0  0  0  0  0  0  0  0  0  0
   -0.4472   13.8374   -6.2108 H   0  0  0  0  0  0  0  0  0  0  0  0
    1.4104   12.9672   -7.4875 H   0  0  0  0  0  0  0  0  0  0  0  0
    2.3901   14.4209   -7.1990 H   0  0  0  0  0  0  0  0  0  0  0  0
    2.7316   11.9008   -5.8950 H   0  0  0  0  0  0  0  0  0  0  0  0
    3.4490   13.4090   -5.3336 H   0  0  0  0  0  0  0  0  0  0  0  0
    0.1670   11.3201   -3.7426 H   0  0  0  0  0  0  0  0  0  0  0  0
   -0.3331   12.1227   -5.2698 H   0  0  0  0  0  0  0  0  0  0  0  0
    1.0462   10.9720   -5.2698 H   0  0  0  0  0  0  0  0  0  0  0  0
    2.9008   13.5973   -2.9811 H   0  0  0  0  0  0  0  0  0  0  0  0
    3.3331   11.1533   -3.6691 H   0  0  0  0  0  0  0  0  0  0  0  0
    3.6738   11.7361   -1.9561 H   0  0  0  0  0  0  0  0  0  0  0  0
    2.5374    9.3696   -2.1783 H   0  0  0  0  0  0  0  0  0  0  0  0
   -0.5741   11.9417   -2.1325 H   0  0  0  0  0  0  0  0  0  0  0  0
    0.4921   11.9796    0.7583 H   0  0  0  0  0  0  0  0  0  0  0  0
   -0.9070   12.9368    0.0975 H   0  0  0  0  0  0  0  0  0  0  0  0
   -1.6514   10.9742    1.4080 H   0  0  0  0  0  0  0  0  0  0  0  0
   -2.1445   10.8914   -0.3286 H   0  0  0  0  0  0  0  0  0  0  0  0
   -1.3722    8.7246    0.3576 H   0  0  0  0  0  0  0  0  0  0  0  0
   -0.0350    9.1850    2.0790 H   0  0  0  0  0  0  0  0  0  0  0  0
   -2.0539    8.9354   -1.7109 H   0  0  0  0  0  0  0  0  0  0  0  0
   -1.1575    9.9947   -2.8515 H   0  0  0  0  0  0  0  0  0  0  0  0
   -0.8632    8.2227   -2.8515 H   0  0  0  0  0  0  0  0  0  0  0  0
    0.9870    7.6489   -0.0852 H   0  0  0  0  0  0  0  0  0  0  0  0
    0.2321    7.1608   -1.6404 H   0  0  0  0  0  0  0  0  0  0  0  0
    1.7804    8.0715   -1.6404 H   0  0  0  0  0  0  0  0  0  0  0  0
    1.5025   13.3001    0.3656 H   0  0  0  0  0  0  0  0  0  0  0  0
    2.9850   13.0125   -0.6071 H   0  0  0  0  0  0  0  0  0  0  0  0
    2.2113   14.6336   -0.6071 H   0  0  0  0  0  0  0  0  0  0  0  0
   -0.6662   14.2890   -1.4575 H   0  0  0  0  0  0  0  0  0  0  0  0
    0.8461   15.2468   -1.9373 H   0  0  0  0  0  0  0  0  0  0  0  0
   -1.0206   13.7037   -3.7602 H   0  0  0  0  0  0  0  0  0  0  0  0
   -0.7355   15.4869   -3.6853 H   0  0  0  0  0  0  0  0  0  0  0  0
    1.9939   15.6862   -3.2085 H   0  0  0  0  0  0  0  0  0  0  0  0
    2.8477   15.3063   -4.7426 H   0  0  0  0  0  0  0  0  0  0  0  0
    1.4719   16.4613   -4.7426 H   0  0  0  0  0  0  0  0  0  0  0  0
  1  2  1  0
  2  3  1  0
  3  4  1  0
  4  5  1  0
  5  6  1  0
  6  7  1  0
  7  8  1  0
  7  9  1  0
  2 10  1  0
 10 11  1  0
 11 12  1  0
 12 13  1  0
 13 14  1  6
 13 15  1  0
 15 16  1  0
 16 17  1  0
 17 18  2  0
 18 19  1  0
 19 20  1  0
 20 21  1  0
 21 22  1  0
 22 23  1  0
 22 24  1  0
 24 25  1  0
 24 26  1  0
 19 27  1  0
 27 28  1  1
 27 29  1  0
 29 30  1  0
 30 31  1  0
 31 32  1  6
  7  5  1  0
 31 10  1  0
 31 13  1  0
 27 15  1  0
 24 18  1  0
  1 33  1  0
  1 34  1  0
  1 35  1  0
  2 36  1  6
  3 37  1  0
  3 38  1  0
  4 39  1  0
  4 40  1  0
  5 41  1  1
  8 42  1  0
  8 43  1  0
  8 44  1  0
  9 45  1  0
  9 46  1  0
  9 47  1  0
 10 48  1  1
 11 49  1  0
 11 50  1  0
 12 51  1  0
 12 52  1  0
 14 53  1  0
 14 54  1  0
 14 55  1  0
 15 56  1  6
 16 57  1  0
 16 58  1  0
 17 59  1  0
 19 60  1  6
 20 61  1  0
 20 62  1  0
 21 63  1  0
 21 64  1  0
 22 65  1  1
 23 66  1  0
 25 67  1  0
 25 68  1  0
 25 69  1  0
 26 70  1  0
 26 71  1  0
 26 72  1  0
 28 73  1  0
 28 74  1  0
 28 75  1  0
 29 76  1  0
 29 77  1  0
 30 78  1  0
 30 79  1  0
 32 80  1  0
 32 81  1  0
 32 82  1  0
M  END
>  <meeko>  (13) 
{"is_sidechain": [false], "intermolecular_energy": 2.731, "internal_energy": -0.839}

$$$$
EPH_relaxed_0001_pdb2pqr_Repair_41_r2_0001_out
     RDKit          3D

 82 86  0  0  0  0  0  0  0  0999 V2000
   -4.0570    7.3010   -3.4810 C   0  0  0  0  0  0  0  0  0  0  0  0
   -3.8350    7.2800   -1.9660 C   0  0  2  0  0  0  0  0  0  0  0  0
   -5.1270    6.9460   -1.1940 C   0  0  0  0  0  0  0  0  0  0  0  0
   -5.7120    5.5730   -1.5370 C   0  0  0  0  0  0  0  0  0  0  0  0
   -7.1570    5.6670   -1.9260 C   0  0  2  0  0  0  0  0  0  0  0  0
   -7.7970    4.4060   -2.1570 O   0  0  0  0  0  0  0  0  0  0  0  0
   -7.6820    5.2770   -3.2950 C   0  0  0  0  0  0  0  0  0  0  0  0
   -6.7680    4.7640   -4.3630 C   0  0  0  0  0  0  0  0  0  0  0  0
   -8.9870    5.8500   -3.7510 C   0  0  0  0  0  0  0  0  0  0  0  0
   -3.2830    8.6230   -1.5030 C   0  0  1  0  0  0  0  0  0  0  0  0
   -3.9090    9.0960   -0.1640 C   0  0  0  0  0  0  0  0  0  0  0  0
   -2.7930    9.8430    0.6120 C   0  0  0  0  0  0  0  0  0  0  0  0
   -1.6740   10.0650   -0.4320 C   0  0  1  0  0  0  0  0  0  0  0  0
   -2.1250   11.3200   -1.2440 C   0  0  0  0  0  0  0  0  0  0  0  0
   -0.2260   10.2330    0.1320 C   0  0  2  0  0  0  0  0  0  0  0  0
   -0.0180   11.4560    1.0420 C   0  0  0  0  0  0  0  0  0  0  0  0
    0.4120   12.7040    0.3440 C   0  0  0  0  0  0  0  0  0  0  0  0
    0.8960   12.7720   -0.9100 C   0  0  0  0  0  0  0  0  0  0  0  0
    1.1450   11.4980   -1.7280 C   0  0  1  0  0  0  0  0  0  0  0  0
    2.5420   11.5770   -2.3980 C   0  0  0  0  0  0  0  0  0  0  0  0
    2.7230   12.8460   -3.2250 C   0  0  0  0  0  0  0  0  0  0  0  0
    2.5250   14.0910   -2.3640 C   0  0  2  0  0  0  0  0  0  0  0  0
    3.5850   14.1620   -1.4050 O   0  0  0  0  0  0  0  0  0  0  0  0
    1.1550   14.1180   -1.6300 C   0  0  0  0  0  0  0  0  0  0  0  0
    0.0190   14.3450   -2.6580 C   0  0  0  0  0  0  0  0  0  0  0  0
    1.1410   15.3520   -0.6880 C   0  0  0  0  0  0  0  0  0  0  0  0
    0.9130   10.1250   -0.9610 C   0  0  1  0  0  0  0  0  0  0  0  0
    2.2140    9.7090   -0.2100 C   0  0  0  0  0  0  0  0  0  0  0  0
    0.6260    8.9900   -2.0140 C   0  0  0  0  0  0  0  0  0  0  0  0
   -0.8410    8.7950   -2.4430 C   0  0  0  0  0  0  0  0  0  0  0  0
   -1.7620    8.7080   -1.2220 C   0  0  2  0  0  0  0  0  0  0  0  0
   -1.3460    7.4420   -0.3980 C   0  0  0  0  0  0  0  0  0  0  0  0
   -5.1316    7.4027   -3.6927 H   0  0  0  0  0  0  0  0  0  0  0  0
   -3.5148    8.1519   -3.9193 H   0  0  0  0  0  0  0  0  0  0  0  0
   -3.6840    6.3636   -3.9193 H   0  0  0  0  0  0  0  0  0  0  0  0
   -3.1069    6.4845   -1.7493 H   0  0  0  0  0  0  0  0  0  0  0  0
   -4.9038    6.9691   -0.1171 H   0  0  0  0  0  0  0  0  0  0  0  0
   -5.8774    7.6964   -1.4835 H   0  0  0  0  0  0  0  0  0  0  0  0
   -5.1444    5.1431   -2.3755 H   0  0  0  0  0  0  0  0  0  0  0  0
   -5.6384    4.9360   -0.6432 H   0  0  0  0  0  0  0  0  0  0  0  0
   -7.2864    6.5744   -1.3178 H   0  0  0  0  0  0  0  0  0  0  0  0
   -5.8986    4.2760   -3.8983 H   0  0  0  0  0  0  0  0  0  0  0  0
   -7.3064    4.0362   -4.9879 H   0  0  0  0  0  0  0  0  0  0  0  0
   -6.4272    5.6027   -4.9879 H   0  0  0  0  0  0  0  0  0  0  0  0
   -9.5961    6.1175   -2.8750 H   0  0  0  0  0  0  0  0  0  0  0  0
   -8.8010    6.7492   -4.3566 H   0  0  0  0  0  0  0  0  0  0  0  0
   -9.5232    5.1045   -4.3566 H   0  0  0  0  0  0  0  0  0  0  0  0
   -3.5386    9.2391   -2.3777 H   0  0  0  0  0  0  0  0  0  0  0  0
   -4.7534    9.7734   -0.3590 H   0  0  0  0  0  0  0  0  0  0  0  0
   -4.2911    8.2434    0.4165 H   0  0  0  0  0  0  0  0  0  0  0  0
   -3.1636   10.8054    0.9948 H   0  0  0  0  0  0  0  0  0  0  0  0
   -2.4413    9.2757    1.4864 H   0  0  0  0  0  0  0  0  0  0  0  0
   -2.4133   12.1223   -0.5489 H   0  0  0  0  0  0  0  0  0  0  0  0
   -1.2945   11.6647   -1.8776 H   0  0  0  0  0  0  0  0  0  0  0  0
   -2.9849   11.0572   -1.8776 H   0  0  0  0  0  0  0  0  0  0  0  0
   -0.1247    9.3539    0.7853 H   0  0  0  0  0  0  0  0  0  0  0  0
   -0.9686   11.6637    1.5550 H   0  0  0  0  0  0  0  0  0  0  0  0
    0.8023   11.1912    1.7253 H   0  0  0  0  0  0  0  0  0  0  0  0
    0.3259   13.6480    0.9021 H   0  0  0  0  0  0  0  0  0  0  0  0
    0.3617   11.4748   -2.5000 H   0  0  0  0  0  0  0  0  0  0  0  0
    3.3116   11.5553   -1.6124 H   0  0  0  0  0  0  0  0  0  0  0  0
    2.6347   10.7183   -3.0793 H   0  0  0  0  0  0  0  0  0  0  0  0
    3.7384   12.8584   -3.6478 H   0  0  0  0  0  0  0  0  0  0  0  0
    1.9718   12.8516   -4.0285 H   0  0  0  0  0  0  0  0  0  0  0  0
    2.5378   14.9614   -3.0364 H   0  0  0  0  0  0  0  0  0  0  0  0
    3.1930   14.4080   -0.5500 H   0  0  0  0  0  0  0  0  0  0  0  0
   -0.9249   14.5336   -2.1257 H   0  0  0  0  0  0  0  0  0  0  0  0
    0.2636   15.2120   -3.2892 H   0  0  0  0  0  0  0  0  0  0  0  0
   -0.0884   13.4506   -3.2892 H   0  0  0  0  0  0  0  0  0  0  0  0
    1.1448   15.0142    0.3588 H   0  0  0  0  0  0  0  0  0  0  0  0
    2.0322   15.9682   -0.8777 H   0  0  0  0  0  0  0  0  0  0  0  0
    0.2360   15.9479   -0.8777 H   0  0  0  0  0  0  0  0  0  0  0  0
    2.0441    9.7633    0.8754 H   0  0  0  0  0  0  0  0  0  0  0  0
    2.4845    8.6796   -0.4877 H   0  0  0  0  0  0  0  0  0  0  0  0
    3.0315   10.3905   -0.4877 H   0  0  0  0  0  0  0  0  0  0  0  0
    1.2093    9.2195   -2.9179 H   0  0  0  0  0  0  0  0  0  0  0  0
    0.9056    8.0529   -1.5104 H   0  0  0  0  0  0  0  0  0  0  0  0
   -1.1498    9.6468   -3.0668 H   0  0  0  0  0  0  0  0  0  0  0  0
   -0.9191    7.8551   -3.0091 H   0  0  0  0  0  0  0  0  0  0  0  0
   -1.4189    7.6639    0.6769 H   0  0  0  0  0  0  0  0  0  0  0  0
   -2.0168    6.6063   -0.6462 H   0  0  0  0  0  0  0  0  0  0  0  0
   -0.3103    7.1670   -0.6462 H   0  0  0  0  0  0  0  0  0  0  0  0
  1  2  1  0
  2  3  1  0
  3  4  1  0
  4  5  1  0
  5  6  1  0
  6  7  1  0
  7  8  1  0
  7  9  1  0
  2 10  1  0
 10 11  1  0
 11 12  1  0
 12 13  1  0
 13 14  1  6
 13 15  1  0
 15 16  1  0
 16 17  1  0
 17 18  2  0
 18 19  1  0
 19 20  1  0
 20 21  1  0
 21 22  1  0
 22 23  1  0
 22 24  1  0
 24 25  1  0
 24 26  1  0
 19 27  1  0
 27 28  1  1
 27 29  1  0
 29 30  1  0
 30 31  1  0
 31 32  1  1
  7  5  1  0
 31 10  1  0
 31 13  1  0
 27 15  1  0
 24 18  1  0
  1 33  1  0
  1 34  1  0
  1 35  1  0
  2 36  1  6
  3 37  1  0
  3 38  1  0
  4 39  1  0
  4 40  1  0
  5 41  1  1
  8 42  1  0
  8 43  1  0
  8 44  1  0
  9 45  1  0
  9 46  1  0
  9 47  1  0
 10 48  1  6
 11 49  1  0
 11 50  1  0
 12 51  1  0
 12 52  1  0
 14 53  1  0
 14 54  1  0
 14 55  1  0
 15 56  1  1
 16 57  1  0
 16 58  1  0
 17 59  1  0
 19 60  1  6
 20 61  1  0
 20 62  1  0
 21 63  1  0
 21 64  1  0
 22 65  1  6
 23 66  1  0
 25 67  1  0
 25 68  1  0
 25 69  1  0
 26 70  1  0
 26 71  1  0
 26 72  1  0
 28 73  1  0
 28 74  1  0
 28 75  1  0
 29 76  1  0
 29 77  1  0
 30 78  1  0
 30 79  1  0
 32 80  1  0
 32 81  1  0
 32 82  1  0
M  END
>  <meeko>  (14) 
{"is_sidechain": [false], "intermolecular_energy": 2.731, "internal_energy": -0.839}

$$$$
EPH_relaxed_0001_pdb2pqr_Repair_41_r2_0001_out
     RDKit          3D

 82 86  0  0  0  0  0  0  0  0999 V2000
   -2.3580    7.8540   -2.3320 C   0  0  0  0  0  0  0  0  0  0  0  0
   -2.2270    8.4090   -0.9110 C   0  0  2  0  0  0  0  0  0  0  0  0
   -3.5620    8.3570   -0.1420 C   0  0  0  0  0  0  0  0  0  0  0  0
   -4.7960    8.4530   -1.0430 C   0  0  0  0  0  0  0  0  0  0  0  0
   -5.5030    7.1360   -1.1560 C   0  0  2  0  0  0  0  0  0  0  0  0
   -5.6000    6.6220   -2.4910 O   0  0  0  0  0  0  0  0  0  0  0  0
   -6.8410    6.9620   -1.8500 C   0  0  0  0  0  0  0  0  0  0  0  0
   -7.5520    8.1200   -2.4770 C   0  0  0  0  0  0  0  0  0  0  0  0
   -7.6810    5.7750   -1.4960 C   0  0  0  0  0  0  0  0  0  0  0  0
   -1.7090    9.8420   -0.9590 C   0  0  1  0  0  0  0  0  0  0  0  0
   -1.2950   10.3740    0.4390 C   0  0  0  0  0  0  0  0  0  0  0  0
   -0.0760   11.3070    0.2200 C   0  0  0  0  0  0  0  0  0  0  0  0
   -0.0360   11.5430   -1.3080 C   0  0  1  0  0  0  0  0  0  0  0  0
   -1.0960   12.6580   -1.5700 C   0  0  0  0  0  0  0  0  0  0  0  0
    1.3570   11.9160   -1.9130 C   0  0  2  0  0  0  0  0  0  0  0  0
    1.9570   13.2380   -1.4020 C   0  0  0  0  0  0  0  0  0  0  0  0
    1.6010   14.4500   -2.1970 C   0  0  0  0  0  0  0  0  0  0  0  0
    1.0680   14.4460   -3.4330 C   0  0  0  0  0  0  0  0  0  0  0  0
    0.8620   13.1320   -4.1980 C   0  0  1  0  0  0  0  0  0  0  0  0
    1.3790   13.2920   -5.6520 C   0  0  0  0  0  0  0  0  0  0  0  0
    0.7540   14.4870   -6.3660 C   0  0  0  0  0  0  0  0  0  0  0  0
    1.0300   15.7820   -5.6060 C   0  0  2  0  0  0  0  0  0  0  0  0
    2.4330   16.0570   -5.6580 O   0  0  0  0  0  0  0  0  0  0  0  0
    0.5610   15.7350   -4.1250 C   0  0  0  0  0  0  0  0  0  0  0  0
   -0.9870   15.7400   -4.0680 C   0  0  0  0  0  0  0  0  0  0  0  0
    1.0250   17.0470   -3.4360 C   0  0  0  0  0  0  0  0  0  0  0  0
    1.4240   11.8240   -3.4920 C   0  0  1  0  0  0  0  0  0  0  0  0
    2.9250   11.6220   -3.8620 C   0  0  0  0  0  0  0  0  0  0  0  0
    0.6560   10.5680   -4.0500 C   0  0  0  0  0  0  0  0  0  0  0  0
   -0.6510   10.1780   -3.3350 C   0  0  0  0  0  0  0  0  0  0  0  0
   -0.4490   10.1140   -1.8180 C   0  0  2  0  0  0  0  0  0  0  0  0
    0.5970    8.9850   -1.5220 C   0  0  0  0  0  0  0  0  0  0  0  0
   -2.6105    6.7844   -2.2860 H   0  0  0  0  0  0  0  0  0  0  0  0
   -3.1529    8.3958   -2.8654 H   0  0  0  0  0  0  0  0  0  0  0  0
   -1.4047    7.9831   -2.8654 H   0  0  0  0  0  0  0  0  0  0  0  0
   -1.5105    7.7722   -0.3715 H   0  0  0  0  0  0  0  0  0  0  0  0
   -3.6081    7.4065    0.4097 H   0  0  0  0  0  0  0  0  0  0  0  0
   -3.5826    9.2313    0.5252 H   0  0  0  0  0  0  0  0  0  0  0  0
   -5.4894    9.1949   -0.6202 H   0  0  0  0  0  0  0  0  0  0  0  0
   -4.4645    8.7519   -2.0484 H   0  0  0  0  0  0  0  0  0  0  0  0
   -5.1417    6.8295   -0.1633 H   0  0  0  0  0  0  0  0  0  0  0  0
   -7.9536    8.7740   -1.6889 H   0  0  0  0  0  0  0  0  0  0  0  0
   -6.8471    8.6885   -3.1015 H   0  0  0  0  0  0  0  0  0  0  0  0
   -8.3779    7.7486   -3.1015 H   0  0  0  0  0  0  0  0  0  0  0  0
   -7.7451    5.6844   -0.4016 H   0  0  0  0  0  0  0  0  0  0  0  0
   -8.6908    5.9029   -1.9131 H   0  0  0  0  0  0  0  0  0  0  0  0
   -7.2245    4.8653   -1.9131 H   0  0  0  0  0  0  0  0  0  0  0  0
   -2.5829   10.3396   -1.4048 H   0  0  0  0  0  0  0  0  0  0  0  0
   -2.1254   10.9358    0.8916 H   0  0  0  0  0  0  0  0  0  0  0  0
   -1.0416    9.5460    1.1174 H   0  0  0  0  0  0  0  0  0  0  0  0
   -0.2130   12.2575    0.7564 H   0  0  0  0  0  0  0  0  0  0  0  0
    0.8588   10.8686    0.5993 H   0  0  0  0  0  0  0  0  0  0  0  0
   -1.4650   13.0462   -0.6092 H   0  0  0  0  0  0  0  0  0  0  0  0
   -0.6341   13.4757   -2.1427 H   0  0  0  0  0  0  0  0  0  0  0  0
   -1.9360   12.2381   -2.1427 H   0  0  0  0  0  0  0  0  0  0  0  0
    2.0060   11.1202   -1.5188 H   0  0  0  0  0  0  0  0  0  0  0  0
    1.6075   13.3935   -0.3706 H   0  0  0  0  0  0  0  0  0  0  0  0
    3.0484   13.1291   -1.4861 H   0  0  0  0  0  0  0  0  0  0  0  0
    1.7902   15.4295   -1.7336 H   0  0  0  0  0  0  0  0  0  0  0  0
   -0.2231   12.9518   -4.2055 H   0  0  0  0  0  0  0  0  0  0  0  0
    2.4702   13.4281   -5.6255 H   0  0  0  0  0  0  0  0  0  0  0  0
    1.0980   12.3857   -6.2084 H   0  0  0  0  0  0  0  0  0  0  0  0
    1.1799   14.5653   -7.3772 H   0  0  0  0  0  0  0  0  0  0  0  0
   -0.3343   14.3353   -6.4177 H   0  0  0  0  0  0  0  0  0  0  0  0
    0.4506   16.5802   -6.0930 H   0  0  0  0  0  0  0  0  0  0  0  0
    2.8770   15.4390   -5.0530 H   0  0  0  0  0  0  0  0  0  0  0  0
   -1.3153   15.7411   -3.0181 H   0  0  0  0  0  0  0  0  0  0  0  0
   -1.3696   16.6394   -4.5727 H   0  0  0  0  0  0  0  0  0  0  0  0
   -1.3754   14.8431   -4.5727 H   0  0  0  0  0  0  0  0  0  0  0  0
    0.9811   16.9230   -2.3439 H   0  0  0  0  0  0  0  0  0  0  0  0
    2.0580   17.2742   -3.7380 H   0  0  0  0  0  0  0  0  0  0  0  0
    0.3645   17.8732   -3.7380 H   0  0  0  0  0  0  0  0  0  0  0  0
    3.5219   11.5417   -2.9416 H   0  0  0  0  0  0  0  0  0  0  0  0
    3.0363   10.7008   -4.4527 H   0  0  0  0  0  0  0  0  0  0  0  0
    3.2758   12.4810   -4.4527 H   0  0  0  0  0  0  0  0  0  0  0  0
    0.4117   10.7686   -5.1036 H   0  0  0  0  0  0  0  0  0  0  0  0
    1.3367    9.7193   -3.8876 H   0  0  0  0  0  0  0  0  0  0  0  0
   -1.4234   10.9270   -3.5637 H   0  0  0  0  0  0  0  0  0  0  0  0
   -0.9611    9.1839   -3.6894 H   0  0  0  0  0  0  0  0  0  0  0  0
    0.7086    8.8646   -0.4343 H   0  0  0  0  0  0  0  0  0  0  0  0
    0.2494    8.0386   -1.9620 H   0  0  0  0  0  0  0  0  0  0  0  0
    1.5671    9.2594   -1.9620 H   0  0  0  0  0  0  0  0  0  0  0  0
  1  2  1  0
  2  3  1  0
  3  4  1  0
  4  5  1  0
  5  6  1  0
  6  7  1  0
  7  8  1  0
  7  9  1  0
  2 10  1  0
 10 11  1  0
 11 12  1  0
 12 13  1  0
 13 14  1  1
 13 15  1  0
 15 16  1  0
 16 17  1  0
 17 18  2  0
 18 19  1  0
 19 20  1  0
 20 21  1  0
 21 22  1  0
 22 23  1  0
 22 24  1  0
 24 25  1  0
 24 26  1  0
 19 27  1  0
 27 28  1  1
 27 29  1  0
 29 30  1  0
 30 31  1  0
 31 32  1  6
  7  5  1  0
 31 10  1  0
 31 13  1  0
 27 15  1  0
 24 18  1  0
  1 33  1  0
  1 34  1  0
  1 35  1  0
  2 36  1  1
  3 37  1  0
  3 38  1  0
  4 39  1  0
  4 40  1  0
  5 41  1  1
  8 42  1  0
  8 43  1  0
  8 44  1  0
  9 45  1  0
  9 46  1  0
  9 47  1  0
 10 48  1  6
 11 49  1  0
 11 50  1  0
 12 51  1  0
 12 52  1  0
 14 53  1  0
 14 54  1  0
 14 55  1  0
 15 56  1  1
 16 57  1  0
 16 58  1  0
 17 59  1  0
 19 60  1  6
 20 61  1  0
 20 62  1  0
 21 63  1  0
 21 64  1  0
 22 65  1  6
 23 66  1  0
 25 67  1  0
 25 68  1  0
 25 69  1  0
 26 70  1  0
 26 71  1  0
 26 72  1  0
 28 73  1  0
 28 74  1  0
 28 75  1  0
 29 76  1  0
 29 77  1  0
 30 78  1  0
 30 79  1  0
 32 80  1  0
 32 81  1  0
 32 82  1  0
M  END
>  <meeko>  (15) 
{"is_sidechain": [false], "intermolecular_energy": 2.731, "internal_energy": -0.839}

$$$$
EPH_relaxed_0001_pdb2pqr_Repair_41_r2_0001_out
     RDKit          3D

 82 86  0  0  0  0  0  0  0  0999 V2000
    2.5300   19.4200   -1.3260 C   0  0  0  0  0  0  0  0  0  0  0  0
    1.2250   19.3870   -0.5260 C   0  0  2  0  0  0  0  0  0  0  0  0
    1.3270   20.1940    0.7840 C   0  0  0  0  0  0  0  0  0  0  0  0
    1.8270   19.3740    1.9760 C   0  0  0  0  0  0  0  0  0  0  0  0
    3.1920   19.8090    2.4150 C   0  0  2  0  0  0  0  0  0  0  0  0
    4.0710   20.1900    1.3480 O   0  0  0  0  0  0  0  0  0  0  0  0
    4.4580   19.0320    2.1060 C   0  0  0  0  0  0  0  0  0  0  0  0
    4.4190   17.7540    1.3270 C   0  0  0  0  0  0  0  0  0  0  0  0
    5.6610   19.2510    2.9690 C   0  0  0  0  0  0  0  0  0  0  0  0
    0.8390   17.9450   -0.2200 C   0  0  1  0  0  0  0  0  0  0  0  0
   -0.5720   17.8260    0.4160 C   0  0  0  0  0  0  0  0  0  0  0  0
   -1.1930   16.5080   -0.1150 C   0  0  0  0  0  0  0  0  0  0  0  0
   -0.0090   15.7540   -0.7650 C   0  0  1  0  0  0  0  0  0  0  0  0
    0.7340   15.0720    0.4260 C   0  0  0  0  0  0  0  0  0  0  0  0
   -0.3760   14.7240   -1.8830 C   0  0  2  0  0  0  0  0  0  0  0  0
   -1.2510   13.5450   -1.4220 C   0  0  0  0  0  0  0  0  0  0  0  0
   -0.5030   12.3420   -0.9500 C   0  0  0  0  0  0  0  0  0  0  0  0
    0.8050   12.1020   -1.1620 C   0  0  0  0  0  0  0  0  0  0  0  0
    1.6490   13.0460   -2.0280 C   0  0  1  0  0  0  0  0  0  0  0  0
    2.4990   12.2140   -3.0240 C   0  0  0  0  0  0  0  0  0  0  0  0
    3.3420   11.1500   -2.3280 C   0  0  0  0  0  0  0  0  0  0  0  0
    2.4610   10.1960   -1.5250 C   0  0  2  0  0  0  0  0  0  0  0  0
    1.6520    9.4410   -2.4320 O   0  0  0  0  0  0  0  0  0  0  0  0
    1.5530   10.9220   -0.4940 C   0  0  0  0  0  0  0  0  0  0  0  0
    2.4200   11.4860    0.6580 C   0  0  0  0  0  0  0  0  0  0  0  0
    0.6160    9.8620    0.1470 C   0  0  0  0  0  0  0  0  0  0  0  0
    0.8590   14.2280   -2.7380 C   0  0  1  0  0  0  0  0  0  0  0  0
    0.2870   13.7400   -4.1040 C   0  0  0  0  0  0  0  0  0  0  0  0
    1.8650   15.3930   -3.0680 C   0  0  0  0  0  0  0  0  0  0  0  0
    2.0950   16.4450   -1.9670 C   0  0  0  0  0  0  0  0  0  0  0  0
    0.7630   16.9600   -1.4140 C   0  0  2  0  0  0  0  0  0  0  0  0
    0.0020   17.6720   -2.5840 C   0  0  0  0  0  0  0  0  0  0  0  0
    3.3843   19.4416   -0.6333 H   0  0  0  0  0  0  0  0  0  0  0  0
    2.5944   18.5232   -1.9597 H   0  0  0  0  0  0  0  0  0  0  0  0
    2.5490   20.3189   -1.9597 H   0  0  0  0  0  0  0  0  0  0  0  0
    0.4460   19.8571   -1.1442 H   0  0  0  0  0  0  0  0  0  0  0  0
    2.0221   21.0312    0.6227 H   0  0  0  0  0  0  0  0  0  0  0  0
    0.3104   20.5334    1.0318 H   0  0  0  0  0  0  0  0  0  0  0  0
    1.1260   19.4999    2.8143 H   0  0  0  0  0  0  0  0  0  0  0  0
    1.8863   18.3202    1.6663 H   0  0  0  0  0  0  0  0  0  0  0  0
    2.7863   20.2150    3.3534 H   0  0  0  0  0  0  0  0  0  0  0  0
    4.3930   16.9017    2.0219 H   0  0  0  0  0  0  0  0  0  0  0  0
    3.5200   17.7381    0.6934 H   0  0  0  0  0  0  0  0  0  0  0  0
    5.3154   17.6833    0.6934 H   0  0  0  0  0  0  0  0  0  0  0  0
    5.3674   19.1975    4.0277 H   0  0  0  0  0  0  0  0  0  0  0  0
    6.4108   18.4746    2.7568 H   0  0  0  0  0  0  0  0  0  0  0  0
    6.0890   20.2418    2.7568 H   0  0  0  0  0  0  0  0  0  0  0  0
    1.6716   17.6685    0.4435 H   0  0  0  0  0  0  0  0  0  0  0  0
   -0.4915   17.7919    1.5125 H   0  0  0  0  0  0  0  0  0  0  0  0
   -1.1979   18.6914    0.1527 H   0  0  0  0  0  0  0  0  0  0  0  0
   -1.6217   15.9204    0.7102 H   0  0  0  0  0  0  0  0  0  0  0  0
   -2.0130   16.6893   -0.8254 H   0  0  0  0  0  0  0  0  0  0  0  0
    0.3255   15.4470    1.3760 H   0  0  0  0  0  0  0  0  0  0  0  0
    0.5928   13.9825    0.3707 H   0  0  0  0  0  0  0  0  0  0  0  0
    1.8074   15.3058    0.3707 H   0  0  0  0  0  0  0  0  0  0  0  0
   -1.0097   15.3211   -2.5552 H   0  0  0  0  0  0  0  0  0  0  0  0
   -1.8864   13.8961   -0.5955 H   0  0  0  0  0  0  0  0  0  0  0  0
   -1.8183   13.2225   -2.3075 H   0  0  0  0  0  0  0  0  0  0  0  0
   -1.0678   11.5886   -0.3814 H   0  0  0  0  0  0  0  0  0  0  0  0
    2.3100   13.5858   -1.3340 H   0  0  0  0  0  0  0  0  0  0  0  0
    1.8228   11.7180   -3.7358 H   0  0  0  0  0  0  0  0  0  0  0  0
    3.1874   12.9047   -3.5331 H   0  0  0  0  0  0  0  0  0  0  0  0
    3.8960   10.5768   -3.0860 H   0  0  0  0  0  0  0  0  0  0  0  0
    4.0388   11.6492   -1.6386 H   0  0  0  0  0  0  0  0  0  0  0  0
    3.1277    9.5390   -0.9472 H   0  0  0  0  0  0  0  0  0  0  0  0
    2.2480    9.0090   -3.0680 H   0  0  0  0  0  0  0  0  0  0  0  0
    1.9785   11.1988    1.6237 H   0  0  0  0  0  0  0  0  0  0  0  0
    3.4385   11.0771    0.5844 H   0  0  0  0  0  0  0  0  0  0  0  0
    2.4590   12.5828    0.5844 H   0  0  0  0  0  0  0  0  0  0  0  0
    0.6783    9.9324    1.2430 H   0  0  0  0  0  0  0  0  0  0  0  0
   -0.4199   10.0463   -0.1740 H   0  0  0  0  0  0  0  0  0  0  0  0
    0.9260    8.8566   -0.1740 H   0  0  0  0  0  0  0  0  0  0  0  0
   -0.5387   13.0356   -3.9251 H   0  0  0  0  0  0  0  0  0  0  0  0
   -0.0848   14.6034   -4.6753 H   0  0  0  0  0  0  0  0  0  0  0  0
    1.0810   13.2368   -4.6753 H   0  0  0  0  0  0  0  0  0  0  0  0
    2.8384   14.9363   -3.3003 H   0  0  0  0  0  0  0  0  0  0  0  0
    1.4037   15.9442   -3.9007 H   0  0  0  0  0  0  0  0  0  0  0  0
    2.6722   15.9894   -1.1489 H   0  0  0  0  0  0  0  0  0  0  0  0
    2.6456   17.2925   -2.4012 H   0  0  0  0  0  0  0  0  0  0  0  0
   -0.7416   18.3677   -2.1680 H   0  0  0  0  0  0  0  0  0  0  0  0
    0.7203   18.2299   -3.2027 H   0  0  0  0  0  0  0  0  0  0  0  0
   -0.5070   16.9182   -3.2027 H   0  0  0  0  0  0  0  0  0  0  0  0
  1  2  1  0
  2  3  1  0
  3  4  1  0
  4  5  1  0
  5  6  1  0
  6  7  1  0
  7  8  1  0
  7  9  1  0
  2 10  1  0
 10 11  1  0
 11 12  1  0
 12 13  1  0
 13 14  1  1
 13 15  1  0
 15 16  1  0
 16 17  1  0
 17 18  2  0
 18 19  1  0
 19 20  1  0
 20 21  1  0
 21 22  1  0
 22 23  1  0
 22 24  1  0
 24 25  1  0
 24 26  1  0
 19 27  1  0
 27 28  1  6
 27 29  1  0
 29 30  1  0
 30 31  1  0
 31 32  1  6
  7  5  1  0
 31 10  1  0
 31 13  1  0
 27 15  1  0
 24 18  1  0
  1 33  1  0
  1 34  1  0
  1 35  1  0
  2 36  1  6
  3 37  1  0
  3 38  1  0
  4 39  1  0
  4 40  1  0
  5 41  1  1
  8 42  1  0
  8 43  1  0
  8 44  1  0
  9 45  1  0
  9 46  1  0
  9 47  1  0
 10 48  1  1
 11 49  1  0
 11 50  1  0
 12 51  1  0
 12 52  1  0
 14 53  1  0
 14 54  1  0
 14 55  1  0
 15 56  1  6
 16 57  1  0
 16 58  1  0
 17 59  1  0
 19 60  1  1
 20 61  1  0
 20 62  1  0
 21 63  1  0
 21 64  1  0
 22 65  1  1
 23 66  1  0
 25 67  1  0
 25 68  1  0
 25 69  1  0
 26 70  1  0
 26 71  1  0
 26 72  1  0
 28 73  1  0
 28 74  1  0
 28 75  1  0
 29 76  1  0
 29 77  1  0
 30 78  1  0
 30 79  1  0
 32 80  1  0
 32 81  1  0
 32 82  1  0
M  END
>  <meeko>  (16) 
{"is_sidechain": [false], "intermolecular_energy": 2.731, "internal_energy": -0.839}

$$$$
EPH_relaxed_0001_pdb2pqr_Repair_41_r2_0001_out
     RDKit          3D

 82 86  0  0  0  0  0  0  0  0999 V2000
    0.5030   18.9780   -2.5830 C   0  0  0  0  0  0  0  0  0  0  0  0
    0.1460   18.0180   -1.4450 C   0  0  2  0  0  0  0  0  0  0  0  0
    0.7080   18.4900   -0.0890 C   0  0  0  0  0  0  0  0  0  0  0  0
    1.9030   19.4390   -0.2140 C   0  0  0  0  0  0  0  0  0  0  0  0
    2.6310   19.5900    1.0870 C   0  0  2  0  0  0  0  0  0  0  0  0
    3.9260   20.1940    0.9820 O   0  0  0  0  0  0  0  0  0  0  0  0
    3.8980   18.8290    1.4290 C   0  0  0  0  0  0  0  0  0  0  0  0
    4.5100   17.8600    0.4670 C   0  0  0  0  0  0  0  0  0  0  0  0
    4.2630   18.6590    2.8710 C   0  0  0  0  0  0  0  0  0  0  0  0
    0.6600   16.6200   -1.7630 C   0  0  1  0  0  0  0  0  0  0  0  0
    2.1620   16.6100   -2.1540 C   0  0  0  0  0  0  0  0  0  0  0  0
    2.7590   15.2900   -1.6030 C   0  0  0  0  0  0  0  0  0  0  0  0
    1.5290   14.4390   -1.2100 C   0  0  1  0  0  0  0  0  0  0  0  0
    1.0360   13.8040   -2.5480 C   0  0  0  0  0  0  0  0  0  0  0  0
    1.7620   13.3540   -0.1080 C   0  0  2  0  0  0  0  0  0  0  0  0
    2.7670   12.2510   -0.4810 C   0  0  0  0  0  0  0  0  0  0  0  0
    2.1790   11.0490   -1.1430 C   0  0  0  0  0  0  0  0  0  0  0  0
    0.8710   10.7340   -1.1720 C   0  0  0  0  0  0  0  0  0  0  0  0
   -0.1600   11.5770   -0.4100 C   0  0  1  0  0  0  0  0  0  0  0  0
   -1.1150   10.6420    0.3750 C   0  0  0  0  0  0  0  0  0  0  0  0
   -1.7670    9.5890   -0.5160 C   0  0  0  0  0  0  0  0  0  0  0  0
   -0.7110    8.7330   -1.2110 C   0  0  2  0  0  0  0  0  0  0  0  0
   -0.0240    7.9580   -0.2240 O   0  0  0  0  0  0  0  0  0  0  0  0
    0.3150    9.5680   -2.0270 C   0  0  0  0  0  0  0  0  0  0  0  0
   -0.3780   10.1680   -3.2750 C   0  0  0  0  0  0  0  0  0  0  0  0
    1.4040    8.5990   -2.5590 C   0  0  0  0  0  0  0  0  0  0  0  0
    0.4310   12.7440    0.4920 C   0  0  1  0  0  0  0  0  0  0  0  0
    0.7920   12.1930    1.9060 C   0  0  0  0  0  0  0  0  0  0  0  0
   -0.6820   13.8370    0.7130 C   0  0  0  0  0  0  0  0  0  0  0  0
   -0.7830   14.9490   -0.3480 C   0  0  0  0  0  0  0  0  0  0  0  0
    0.5910   15.5620   -0.6340 C   0  0  2  0  0  0  0  0  0  0  0  0
    1.1020   16.2270    0.6890 C   0  0  0  0  0  0  0  0  0  0  0  0
    0.8572   19.9304   -2.1617 H   0  0  0  0  0  0  0  0  0  0  0  0
    1.2960   18.5336   -3.2024 H   0  0  0  0  0  0  0  0  0  0  0  0
   -0.3877   19.1597   -3.2024 H   0  0  0  0  0  0  0  0  0  0  0  0
   -0.9506   18.0001   -1.3598 H   0  0  0  0  0  0  0  0  0  0  0  0
   -0.0930   19.0104    0.4566 H   0  0  0  0  0  0  0  0  0  0  0  0
    1.0635   17.5939    0.4407 H   0  0  0  0  0  0  0  0  0  0  0  0
    2.5982   19.0392   -0.9669 H   0  0  0  0  0  0  0  0  0  0  0  0
    1.5249   20.4282   -0.5115 H   0  0  0  0  0  0  0  0  0  0  0  0
    1.6833   19.7268    1.6285 H   0  0  0  0  0  0  0  0  0  0  0  0
    5.0160   17.0588    1.0256 H   0  0  0  0  0  0  0  0  0  0  0  0
    3.7226   17.4248   -0.1659 H   0  0  0  0  0  0  0  0  0  0  0  0
    5.2413   18.3840   -0.1659 H   0  0  0  0  0  0  0  0  0  0  0  0
    3.4469   19.0391    3.5031 H   0  0  0  0  0  0  0  0  0  0  0  0
    4.4259   17.5923    3.0847 H   0  0  0  0  0  0  0  0  0  0  0  0
    5.1843   19.2207    3.0847 H   0  0  0  0  0  0  0  0  0  0  0  0
   -0.0325   16.3500   -2.5739 H   0  0  0  0  0  0  0  0  0  0  0  0
    2.2688   16.6463   -3.2482 H   0  0  0  0  0  0  0  0  0  0  0  0
    2.6843   17.4838   -1.7373 H   0  0  0  0  0  0  0  0  0  0  0  0
    3.3529   14.7801   -2.3759 H   0  0  0  0  0  0  0  0  0  0  0  0
    3.4361   15.4614   -0.7532 H   0  0  0  0  0  0  0  0  0  0  0  0
    0.3750   12.9527   -2.3282 H   0  0  0  0  0  0  0  0  0  0  0  0
    0.4833   14.5567   -3.1294 H   0  0  0  0  0  0  0  0  0  0  0  0
    1.9022   13.4551   -3.1294 H   0  0  0  0  0  0  0  0  0  0  0  0
    2.2390   13.9331    0.6964 H   0  0  0  0  0  0  0  0  0  0  0  0
    3.5105   12.6860   -1.1650 H   0  0  0  0  0  0  0  0  0  0  0  0
    3.1953   11.8964    0.4681 H   0  0  0  0  0  0  0  0  0  0  0  0
    2.8736   10.3629   -1.6498 H   0  0  0  0  0  0  0  0  0  0  0  0
   -0.7259   12.1302   -1.1740 H   0  0  0  0  0  0  0  0  0  0  0  0
   -0.5404   10.1312    1.1617 H   0  0  0  0  0  0  0  0  0  0  0  0
   -1.9174   11.2640    0.7984 H   0  0  0  0  0  0  0  0  0  0  0  0
   -2.4065    8.9410    0.1013 H   0  0  0  0  0  0  0  0  0  0  0  0
   -2.3655   10.1007   -1.2841 H   0  0  0  0  0  0  0  0  0  0  0  0
   -1.2326    8.0864   -1.9320 H   0  0  0  0  0  0  0  0  0  0  0  0
    0.0860    8.5160    0.5650 H   0  0  0  0  0  0  0  0  0  0  0  0
   -1.1740   10.8572   -2.9566 H   0  0  0  0  0  0  0  0  0  0  0  0
    0.3617   10.7155   -3.8775 H   0  0  0  0  0  0  0  0  0  0  0  0
   -0.8140    9.3575   -3.8775 H   0  0  0  0  0  0  0  0  0  0  0  0
    1.9269    8.1337   -1.7105 H   0  0  0  0  0  0  0  0  0  0  0  0
    0.9315    7.8172   -3.1718 H   0  0  0  0  0  0  0  0  0  0  0  0
    2.1256    9.1592   -3.1718 H   0  0  0  0  0  0  0  0  0  0  0  0
    0.3617   12.8498    2.6763 H   0  0  0  0  0  0  0  0  0  0  0  0
    0.3832   11.1781    2.0194 H   0  0  0  0  0  0  0  0  0  0  0  0
    1.8857   12.1625    2.0194 H   0  0  0  0  0  0  0  0  0  0  0  0
   -1.6529   13.3211    0.7480 H   0  0  0  0  0  0  0  0  0  0  0  0
   -0.3999   14.3514    1.6435 H   0  0  0  0  0  0  0  0  0  0  0  0
   -1.1873   14.5230   -1.2781 H   0  0  0  0  0  0  0  0  0  0  0  0
   -1.4461   15.7389    0.0346 H   0  0  0  0  0  0  0  0  0  0  0  0
    0.6879   15.6881    1.5539 H   0  0  0  0  0  0  0  0  0  0  0  0
    2.2006   16.1827    0.7211 H   0  0  0  0  0  0  0  0  0  0  0  0
    0.7763   17.2772    0.7211 H   0  0  0  0  0  0  0  0  0  0  0  0
  1  2  1  0
  2  3  1  0
  3  4  1  0
  4  5  1  0
  5  6  1  0
  6  7  1  0
  7  8  1  0
  7  9  1  0
  2 10  1  0
 10 11  1  0
 11 12  1  0
 12 13  1  0
 13 14  1  6
 13 15  1  0
 15 16  1  0
 16 17  1  0
 17 18  2  0
 18 19  1  0
 19 20  1  0
 20 21  1  0
 21 22  1  0
 22 23  1  0
 22 24  1  0
 24 25  1  0
 24 26  1  0
 19 27  1  0
 27 28  1  1
 27 29  1  0
 29 30  1  0
 30 31  1  0
 31 32  1  1
  7  5  1  0
 31 10  1  0
 31 13  1  0
 27 15  1  0
 24 18  1  0
  1 33  1  0
  1 34  1  0
  1 35  1  0
  2 36  1  1
  3 37  1  0
  3 38  1  0
  4 39  1  0
  4 40  1  0
  5 41  1  1
  8 42  1  0
  8 43  1  0
  8 44  1  0
  9 45  1  0
  9 46  1  0
  9 47  1  0
 10 48  1  6
 11 49  1  0
 11 50  1  0
 12 51  1  0
 12 52  1  0
 14 53  1  0
 14 54  1  0
 14 55  1  0
 15 56  1  1
 16 57  1  0
 16 58  1  0
 17 59  1  0
 19 60  1  6
 20 61  1  0
 20 62  1  0
 21 63  1  0
 21 64  1  0
 22 65  1  6
 23 66  1  0
 25 67  1  0
 25 68  1  0
 25 69  1  0
 26 70  1  0
 26 71  1  0
 26 72  1  0
 28 73  1  0
 28 74  1  0
 28 75  1  0
 29 76  1  0
 29 77  1  0
 30 78  1  0
 30 79  1  0
 32 80  1  0
 32 81  1  0
 32 82  1  0
M  END
>  <meeko>  (17) 
{"is_sidechain": [false], "intermolecular_energy": 2.731, "internal_energy": -0.839}

$$$$
EPH_relaxed_0001_pdb2pqr_Repair_41_r2_0001_out
     RDKit          3D

 82 86  0  0  0  0  0  0  0  0999 V2000
   -2.1550    9.6240   -0.4370 C   0  0  0  0  0  0  0  0  0  0  0  0
   -1.5540   10.5230   -1.5200 C   0  0  2  0  0  0  0  0  0  0  0  0
   -0.5570    9.7640   -2.4190 C   0  0  0  0  0  0  0  0  0  0  0  0
    0.8330    9.6020   -1.7970 C   0  0  0  0  0  0  0  0  0  0  0  0
    1.9180    9.9820   -2.7580 C   0  0  2  0  0  0  0  0  0  0  0  0
    3.1050    9.1840   -2.6670 O   0  0  0  0  0  0  0  0  0  0  0  0
    3.2480   10.5720   -2.3270 C   0  0  0  0  0  0  0  0  0  0  0  0
    3.5630   10.8170   -0.8850 C   0  0  0  0  0  0  0  0  0  0  0  0
    4.0390   11.3590   -3.3260 C   0  0  0  0  0  0  0  0  0  0  0  0
   -0.8660   11.7220   -0.8770 C   0  0  1  0  0  0  0  0  0  0  0  0
    0.2760   11.3090    0.0880 C   0  0  0  0  0  0  0  0  0  0  0  0
    1.3790   12.3920   -0.0340 C   0  0  0  0  0  0  0  0  0  0  0  0
    0.7030   13.5520   -0.8010 C   0  0  1  0  0  0  0  0  0  0  0  0
   -0.1150   14.3260    0.2800 C   0  0  0  0  0  0  0  0  0  0  0  0
    1.6560   14.5030   -1.5950 C   0  0  2  0  0  0  0  0  0  0  0  0
    2.6690   15.2790   -0.7340 C   0  0  0  0  0  0  0  0  0  0  0  0
    2.2030   16.6110   -0.2480 C   0  0  0  0  0  0  0  0  0  0  0  0
    1.1390   17.2880   -0.7190 C   0  0  0  0  0  0  0  0  0  0  0  0
    0.3380   16.7610   -1.9170 C   0  0  1  0  0  0  0  0  0  0  0  0
    0.0880   17.9170   -2.9210 C   0  0  0  0  0  0  0  0  0  0  0  0
   -0.5690   19.1290   -2.2670 C   0  0  0  0  0  0  0  0  0  0  0  0
    0.2860   19.6590   -1.1190 C   0  0  2  0  0  0  0  0  0  0  0  0
    1.5030   20.1870   -1.6560 O   0  0  0  0  0  0  0  0  0  0  0  0
    0.6110   18.5800   -0.0490 C   0  0  0  0  0  0  0  0  0  0  0  0
   -0.6730   18.2280    0.7420 C   0  0  0  0  0  0  0  0  0  0  0  0
    1.5940   19.2070    0.9770 C   0  0  0  0  0  0  0  0  0  0  0  0
    0.9160   15.4570   -2.6180 C   0  0  1  0  0  0  0  0  0  0  0  0
    1.9680   15.8560   -3.6970 C   0  0  0  0  0  0  0  0  0  0  0  0
   -0.2500   14.7260   -3.3820 C   0  0  0  0  0  0  0  0  0  0  0  0
   -1.0800   13.7090   -2.5750 C   0  0  0  0  0  0  0  0  0  0  0  0
   -0.1700   12.7340   -1.8220 C   0  0  2  0  0  0  0  0  0  0  0  0
    0.6490   11.9250   -2.8840 C   0  0  0  0  0  0  0  0  0  0  0  0
   -1.8911   10.0187    0.5553 H   0  0  0  0  0  0  0  0  0  0  0  0
   -3.2496    9.6027   -0.5439 H   0  0  0  0  0  0  0  0  0  0  0  0
   -1.7563    8.6044   -0.5439 H   0  0  0  0  0  0  0  0  0  0  0  0
   -2.3800   10.8664   -2.1602 H   0  0  0  0  0  0  0  0  0  0  0  0
   -0.9653    8.7630   -2.6223 H   0  0  0  0  0  0  0  0  0  0  0  0
   -0.4318   10.3603   -3.3349 H   0  0  0  0  0  0  0  0  0  0  0  0
    0.9028   10.2458   -0.9078 H   0  0  0  0  0  0  0  0  0  0  0  0
    0.9675    8.5436   -1.5291 H   0  0  0  0  0  0  0  0  0  0  0  0
    1.1767   10.3007   -3.5056 H   0  0  0  0  0  0  0  0  0  0  0  0
    2.8512   10.2634   -0.2550 H   0  0  0  0  0  0  0  0  0  0  0  0
    4.5861   10.4749   -0.6699 H   0  0  0  0  0  0  0  0  0  0  0  0
    3.4833   11.8928   -0.6699 H   0  0  0  0  0  0  0  0  0  0  0  0
    4.7230   12.0396   -2.7979 H   0  0  0  0  0  0  0  0  0  0  0  0
    4.6209   10.6710   -3.9569 H   0  0  0  0  0  0  0  0  0  0  0  0
    3.3540   11.9444   -3.9569 H   0  0  0  0  0  0  0  0  0  0  0  0
   -1.7336   12.1944   -0.3931 H   0  0  0  0  0  0  0  0  0  0  0  0
   -0.0987   11.2648    1.1213 H   0  0  0  0  0  0  0  0  0  0  0  0
    0.6693   10.3143   -0.1686 H   0  0  0  0  0  0  0  0  0  0  0  0
    1.7086   12.7245    0.9614 H   0  0  0  0  0  0  0  0  0  0  0  0
    2.2760   12.0179   -0.5492 H   0  0  0  0  0  0  0  0  0  0  0  0
    0.2145   14.0142    1.2821 H   0  0  0  0  0  0  0  0  0  0  0  0
    0.0493   15.4070    0.1598 H   0  0  0  0  0  0  0  0  0  0  0  0
   -1.1853   14.1022    0.1598 H   0  0  0  0  0  0  0  0  0  0  0  0
    2.2507   13.7959   -2.1919 H   0  0  0  0  0  0  0  0  0  0  0  0
    2.9117   14.6625    0.1441 H   0  0  0  0  0  0  0  0  0  0  0  0
    3.5333   15.4774   -1.3849 H   0  0  0  0  0  0  0  0  0  0  0  0
    2.7780   17.0795    0.5643 H   0  0  0  0  0  0  0  0  0  0  0  0
   -0.6205   16.4063   -1.5102 H   0  0  0  0  0  0  0  0  0  0  0  0
    1.0528   18.2271   -3.3489 H   0  0  0  0  0  0  0  0  0  0  0  0
   -0.5976   17.5435   -3.6959 H   0  0  0  0  0  0  0  0  0  0  0  0
   -0.6925   19.9216   -3.0197 H   0  0  0  0  0  0  0  0  0  0  0  0
   -1.5468   18.8246   -1.8654 H   0  0  0  0  0  0  0  0  0  0  0  0
   -0.2948   20.4414   -0.6086 H   0  0  0  0  0  0  0  0  0  0  0  0
    1.4990   20.0190   -2.6140 H   0  0  0  0  0  0  0  0  0  0  0  0
   -0.4661   18.2847    1.8209 H   0  0  0  0  0  0  0  0  0  0  0  0
   -1.4699   18.9408    0.4835 H   0  0  0  0  0  0  0  0  0  0  0  0
   -0.9950   17.2084    0.4835 H   0  0  0  0  0  0  0  0  0  0  0  0
    1.2484   18.9866    1.9978 H   0  0  0  0  0  0  0  0  0  0  0  0
    2.5979   18.7820    0.8299 H   0  0  0  0  0  0  0  0  0  0  0  0
    1.6319   20.2965    0.8299 H   0  0  0  0  0  0  0  0  0  0  0  0
    2.8866   16.2044   -3.2023 H   0  0  0  0  0  0  0  0  0  0  0  0
    2.1984   14.9828   -4.3251 H   0  0  0  0  0  0  0  0  0  0  0  0
    1.5613   16.6623   -4.3251 H   0  0  0  0  0  0  0  0  0  0  0  0
   -0.9398   15.4982   -3.7535 H   0  0  0  0  0  0  0  0  0  0  0  0
    0.2461   14.1348   -4.1658 H   0  0  0  0  0  0  0  0  0  0  0  0
   -1.7061   14.2498   -1.8501 H   0  0  0  0  0  0  0  0  0  0  0  0
   -1.7075   13.1355   -3.2731 H   0  0  0  0  0  0  0  0  0  0  0  0
    1.3410   11.2414   -2.3704 H   0  0  0  0  0  0  0  0  0  0  0  0
   -0.0406   11.3437   -3.5138 H   0  0  0  0  0  0  0  0  0  0  0  0
    1.2218   12.6217   -3.5138 H   0  0  0  0  0  0  0  0  0  0  0  0
  1  2  1  0
  2  3  1  0
  3  4  1  0
  4  5  1  0
  5  6  1  0
  6  7  1  0
  7  8  1  0
  7  9  1  0
  2 10  1  0
 10 11  1  0
 11 12  1  0
 12 13  1  0
 13 14  1  1
 13 15  1  0
 15 16  1  0
 16 17  1  0
 17 18  2  0
 18 19  1  0
 19 20  1  0
 20 21  1  0
 21 22  1  0
 22 23  1  0
 22 24  1  0
 24 25  1  0
 24 26  1  0
 19 27  1  0
 27 28  1  6
 27 29  1  0
 29 30  1  0
 30 31  1  0
 31 32  1  6
  7  5  1  0
 31 10  1  0
 31 13  1  0
 27 15  1  0
 24 18  1  0
  1 33  1  0
  1 34  1  0
  1 35  1  0
  2 36  1  6
  3 37  1  0
  3 38  1  0
  4 39  1  0
  4 40  1  0
  5 41  1  6
  8 42  1  0
  8 43  1  0
  8 44  1  0
  9 45  1  0
  9 46  1  0
  9 47  1  0
 10 48  1  1
 11 49  1  0
 11 50  1  0
 12 51  1  0
 12 52  1  0
 14 53  1  0
 14 54  1  0
 14 55  1  0
 15 56  1  6
 16 57  1  0
 16 58  1  0
 17 59  1  0
 19 60  1  1
 20 61  1  0
 20 62  1  0
 21 63  1  0
 21 64  1  0
 22 65  1  1
 23 66  1  0
 25 67  1  0
 25 68  1  0
 25 69  1  0
 26 70  1  0
 26 71  1  0
 26 72  1  0
 28 73  1  0
 28 74  1  0
 28 75  1  0
 29 76  1  0
 29 77  1  0
 30 78  1  0
 30 79  1  0
 32 80  1  0
 32 81  1  0
 32 82  1  0
M  END
>  <meeko>  (18) 
{"is_sidechain": [false], "intermolecular_energy": 2.731, "internal_energy": -0.839}

$$$$
EPH_relaxed_0001_pdb2pqr_Repair_41_r2_0001_out
     RDKit          3D

 82 86  0  0  0  0  0  0  0  0999 V2000
    0.7300    8.1480   -2.4710 C   0  0  0  0  0  0  0  0  0  0  0  0
   -0.6950    8.4750   -2.0140 C   0  0  2  0  0  0  0  0  0  0  0  0
   -1.7590    7.8790   -2.9580 C   0  0  0  0  0  0  0  0  0  0  0  0
   -3.0460    7.4550   -2.2450 C   0  0  0  0  0  0  0  0  0  0  0  0
   -3.8980    6.5800   -3.1130 C   0  0  2  0  0  0  0  0  0  0  0  0
   -5.0240    7.2390   -3.7070 O   0  0  0  0  0  0  0  0  0  0  0  0
   -5.3240    6.1940   -2.7680 C   0  0  0  0  0  0  0  0  0  0  0  0
   -5.9800    6.6740   -1.5120 C   0  0  0  0  0  0  0  0  0  0  0  0
   -5.9060    4.9670   -3.3980 C   0  0  0  0  0  0  0  0  0  0  0  0
   -0.8750    9.9850   -1.9150 C   0  0  1  0  0  0  0  0  0  0  0  0
   -2.3380   10.3920   -1.5920 C   0  0  0  0  0  0  0  0  0  0  0  0
   -2.2630   11.6520   -0.6910 C   0  0  0  0  0  0  0  0  0  0  0  0
   -0.7930   12.1200   -0.7960 C   0  0  1  0  0  0  0  0  0  0  0  0
   -0.7220   12.9200   -2.1350 C   0  0  0  0  0  0  0  0  0  0  0  0
   -0.2460   12.9570    0.4060 C   0  0  2  0  0  0  0  0  0  0  0  0
   -0.9600   14.3000    0.6440 C   0  0  0  0  0  0  0  0  0  0  0  0
   -0.3730   15.4700   -0.0740 C   0  0  0  0  0  0  0  0  0  0  0  0
    0.8440   15.5060   -0.6480 C   0  0  0  0  0  0  0  0  0  0  0  0
    1.8090   14.3200   -0.5230 C   0  0  1  0  0  0  0  0  0  0  0  0
    3.2210   14.8390   -0.1470 C   0  0  0  0  0  0  0  0  0  0  0  0
    3.7290   15.9050   -1.1140 C   0  0  0  0  0  0  0  0  0  0  0  0
    2.7720   17.0930   -1.1670 C   0  0  2  0  0  0  0  0  0  0  0  0
    2.7890   17.7550    0.1020 O   0  0  0  0  0  0  0  0  0  0  0  0
    1.3150   16.6910   -1.5270 C   0  0  0  0  0  0  0  0  0  0  0  0
    1.2470   16.2530   -3.0110 C   0  0  0  0  0  0  0  0  0  0  0  0
    0.4260   17.9580   -1.4070 C   0  0  0  0  0  0  0  0  0  0  0  0
    1.3270   13.1300    0.4140 C   0  0  1  0  0  0  0  0  0  0  0  0
    1.7360   13.4160    1.8910 C   0  0  0  0  0  0  0  0  0  0  0  0
    2.0750   11.8090   -0.0060 C   0  0  0  0  0  0  0  0  0  0  0  0
    1.4230   10.9640   -1.1160 C   0  0  0  0  0  0  0  0  0  0  0  0
   -0.0620   10.7280   -0.8250 C   0  0  2  0  0  0  0  0  0  0  0  0
   -0.1640    9.9070    0.5050 C   0  0  0  0  0  0  0  0  0  0  0  0
    1.3727    8.0005   -1.5905 H   0  0  0  0  0  0  0  0  0  0  0  0
    0.7194    7.2289   -3.0753 H   0  0  0  0  0  0  0  0  0  0  0  0
    1.1212    8.9797   -3.0753 H   0  0  0  0  0  0  0  0  0  0  0  0
   -0.8381    8.0173   -1.0241 H   0  0  0  0  0  0  0  0  0  0  0  0
   -2.0143    8.6351   -3.7150 H   0  0  0  0  0  0  0  0  0  0  0  0
   -1.3232    6.9716   -3.4015 H   0  0  0  0  0  0  0  0  0  0  0  0
   -2.7819    6.9020   -1.3315 H   0  0  0  0  0  0  0  0  0  0  0  0
   -3.6197    8.3623   -2.0046 H   0  0  0  0  0  0  0  0  0  0  0  0
   -3.0230    5.9830   -3.4098 H   0  0  0  0  0  0  0  0  0  0  0  0
   -5.4381    6.2775   -0.6407 H   0  0  0  0  0  0  0  0  0  0  0  0
   -5.9617    7.7735   -1.4859 H   0  0  0  0  0  0  0  0  0  0  0  0
   -7.0225    6.3239   -1.4859 H   0  0  0  0  0  0  0  0  0  0  0  0
   -6.2356    4.2722   -2.6115 H   0  0  0  0  0  0  0  0  0  0  0  0
   -6.7665    5.2485   -4.0227 H   0  0  0  0  0  0  0  0  0  0  0  0
   -5.1435    4.4787   -4.0227 H   0  0  0  0  0  0  0  0  0  0  0  0
   -0.5214   10.2792   -2.9142 H   0  0  0  0  0  0  0  0  0  0  0  0
   -2.8810   10.6220   -2.5205 H   0  0  0  0  0  0  0  0  0  0  0  0
   -2.8726    9.5751   -1.0852 H   0  0  0  0  0  0  0  0  0  0  0  0
   -2.9461   12.4325   -1.0573 H   0  0  0  0  0  0  0  0  0  0  0  0
   -2.5603   11.4409    0.3468 H   0  0  0  0  0  0  0  0  0  0  0  0
   -0.6267   13.9938   -1.9160 H   0  0  0  0  0  0  0  0  0  0  0  0
    0.1500   12.5855   -2.7162 H   0  0  0  0  0  0  0  0  0  0  0  0
   -1.6393   12.7443   -2.7162 H   0  0  0  0  0  0  0  0  0  0  0  0
   -0.5015   12.3246    1.2690 H   0  0  0  0  0  0  0  0  0  0  0  0
   -2.0054   14.1915    0.3194 H   0  0  0  0  0  0  0  0  0  0  0  0
   -0.8523   14.5161    1.7172 H   0  0  0  0  0  0  0  0  0  0  0  0
   -0.9874   16.3801   -0.1395 H   0  0  0  0  0  0  0  0  0  0  0  0
    1.8377   13.8454   -1.5149 H   0  0  0  0  0  0  0  0  0  0  0  0
    3.1805   15.2705    0.8640 H   0  0  0  0  0  0  0  0  0  0  0  0
    3.9142   13.9863   -0.1956 H   0  0  0  0  0  0  0  0  0  0  0  0
    4.7173   16.2533   -0.7793 H   0  0  0  0  0  0  0  0  0  0  0  0
    3.7973   15.4637   -2.1193 H   0  0  0  0  0  0  0  0  0  0  0  0
    3.1196   17.7611   -1.9688 H   0  0  0  0  0  0  0  0  0  0  0  0
    3.7080   17.7560    0.4210 H   0  0  0  0  0  0  0  0  0  0  0  0
    1.0785   15.1674   -3.0655 H   0  0  0  0  0  0  0  0  0  0  0  0
    0.4196   16.7781   -3.5107 H   0  0  0  0  0  0  0  0  0  0  0  0
    2.1946   16.5025   -3.5107 H   0  0  0  0  0  0  0  0  0  0  0  0
    0.2621   18.1916   -0.3447 H   0  0  0  0  0  0  0  0  0  0  0  0
    0.9282   18.8059   -1.8957 H   0  0  0  0  0  0  0  0  0  0  0  0
   -0.5422   17.7742   -1.8957 H   0  0  0  0  0  0  0  0  0  0  0  0
    1.0270   12.9202    2.5704 H   0  0  0  0  0  0  0  0  0  0  0  0
    2.7495   13.0287    2.0724 H   0  0  0  0  0  0  0  0  0  0  0  0
    1.7201   14.5008    2.0724 H   0  0  0  0  0  0  0  0  0  0  0  0
    3.0808   12.0914   -0.3503 H   0  0  0  0  0  0  0  0  0  0  0  0
    2.0562   11.1708    0.8897 H   0  0  0  0  0  0  0  0  0  0  0  0
    1.5220   11.4925   -2.0756 H   0  0  0  0  0  0  0  0  0  0  0  0
    1.9311    9.9893   -1.1588 H   0  0  0  0  0  0  0  0  0  0  0  0
   -0.0793   10.5887    1.3641 H   0  0  0  0  0  0  0  0  0  0  0  0
   -1.1335    9.3886    0.5425 H   0  0  0  0  0  0  0  0  0  0  0  0
    0.6491    9.1671    0.5425 H   0  0  0  0  0  0  0  0  0  0  0  0
  1  2  1  0
  2  3  1  0
  3  4  1  0
  4  5  1  0
  5  6  1  0
  6  7  1  0
  7  8  1  0
  7  9  1  0
  2 10  1  0
 10 11  1  0
 11 12  1  0
 12 13  1  0
 13 14  1  6
 13 15  1  0
 15 16  1  0
 16 17  1  0
 17 18  2  0
 18 19  1  0
 19 20  1  0
 20 21  1  0
 21 22  1  0
 22 23  1  0
 22 24  1  0
 24 25  1  0
 24 26  1  0
 19 27  1  0
 27 28  1  1
 27 29  1  0
 29 30  1  0
 30 31  1  0
 31 32  1  1
  7  5  1  0
 31 10  1  0
 31 13  1  0
 27 15  1  0
 24 18  1  0
  1 33  1  0
  1 34  1  0
  1 35  1  0
  2 36  1  1
  3 37  1  0
  3 38  1  0
  4 39  1  0
  4 40  1  0
  5 41  1  6
  8 42  1  0
  8 43  1  0
  8 44  1  0
  9 45  1  0
  9 46  1  0
  9 47  1  0
 10 48  1  6
 11 49  1  0
 11 50  1  0
 12 51  1  0
 12 52  1  0
 14 53  1  0
 14 54  1  0
 14 55  1  0
 15 56  1  1
 16 57  1  0
 16 58  1  0
 17 59  1  0
 19 60  1  6
 20 61  1  0
 20 62  1  0
 21 63  1  0
 21 64  1  0
 22 65  1  6
 23 66  1  0
 25 67  1  0
 25 68  1  0
 25 69  1  0
 26 70  1  0
 26 71  1  0
 26 72  1  0
 28 73  1  0
 28 74  1  0
 28 75  1  0
 29 76  1  0
 29 77  1  0
 30 78  1  0
 30 79  1  0
 32 80  1  0
 32 81  1  0
 32 82  1  0
M  END
>  <meeko>  (19) 
{"is_sidechain": [false], "intermolecular_energy": 2.731, "internal_energy": -0.839}

$$$$
