EPH_relaxed_0001_pdb2pqr_Repair_106_r2_0001_out
     RDKit          3D

 82 86  0  0  0  0  0  0  0  0999 V2000
   -1.3870    8.5040   -1.5140 C   0  0  0  0  0  0  0  0  0  0  0  0
   -2.0180    9.3260   -0.3870 C   0  0  2  0  0  0  0  0  0  0  0  0
   -3.4390    9.8070   -0.7440 C   0  0  0  0  0  0  0  0  0  0  0  0
   -4.4800    8.6850   -0.7710 C   0  0  0  0  0  0  0  0  0  0  0  0
   -5.7190    9.0960   -1.5080 C   0  0  2  0  0  0  0  0  0  0  0  0
   -6.8820    8.3140   -1.2060 O   0  0  0  0  0  0  0  0  0  0  0  0
   -6.3940    8.2300   -2.5550 C   0  0  0  0  0  0  0  0  0  0  0  0
   -5.8520    6.8850   -2.9240 C   0  0  0  0  0  0  0  0  0  0  0  0
   -7.2860    8.8890   -3.5610 C   0  0  0  0  0  0  0  0  0  0  0  0
   -1.1310   10.5200   -0.0550 C   0  0  1  0  0  0  0  0  0  0  0  0
   -0.0480   10.1840    1.0040 C   0  0  0  0  0  0  0  0  0  0  0  0
    1.2120   11.0090    0.6320 C   0  0  0  0  0  0  0  0  0  0  0  0
    0.7130   12.0310   -0.4160 C   0  0  1  0  0  0  0  0  0  0  0  0
    0.0570   13.1740    0.4200 C   0  0  0  0  0  0  0  0  0  0  0  0
    1.7890   12.5840   -1.4070 C   0  0  2  0  0  0  0  0  0  0  0  0
    2.9330   13.3780   -0.7520 C   0  0  0  0  0  0  0  0  0  0  0  0
    2.6990   14.8470   -0.6260 C   0  0  0  0  0  0  0  0  0  0  0  0
    1.7480   15.5460   -1.2730 C   0  0  0  0  0  0  0  0  0  0  0  0
    0.8440   14.8710   -2.3120 C   0  0  1  0  0  0  0  0  0  0  0  0
    0.7600   15.7600   -3.5800 C   0  0  0  0  0  0  0  0  0  0  0  0
    0.3230   17.1880   -3.2660 C   0  0  0  0  0  0  0  0  0  0  0  0
    1.2790   17.8450   -2.2740 C   0  0  2  0  0  0  0  0  0  0  0  0
    2.5520   18.0160   -2.9050 O   0  0  0  0  0  0  0  0  0  0  0  0
    1.4510   17.0330   -0.9600 C   0  0  0  0  0  0  0  0  0  0  0  0
    0.1460   17.1040   -0.1290 C   0  0  0  0  0  0  0  0  0  0  0  0
    2.5460   17.7310   -0.1080 C   0  0  0  0  0  0  0  0  0  0  0  0
    1.1870   13.3560   -2.6500 C   0  0  1  0  0  0  0  0  0  0  0  0
    2.2640   13.2940   -3.7770 C   0  0  0  0  0  0  0  0  0  0  0  0
   -0.0990   12.6540   -3.2260 C   0  0  0  0  0  0  0  0  0  0  0  0
   -1.0620   12.0220   -2.2040 C   0  0  0  0  0  0  0  0  0  0  0  0
   -0.3040   11.1350   -1.2120 C   0  0  2  0  0  0  0  0  0  0  0  0
    0.3480    9.9620   -2.0210 C   0  0  0  0  0  0  0  0  0  0  0  0
   -0.7710    7.7016   -1.0819 H   0  0  0  0  0  0  0  0  0  0  0  0
   -2.1807    8.0630   -2.1349 H   0  0  0  0  0  0  0  0  0  0  0  0
   -0.7559    9.1568   -2.1349 H   0  0  0  0  0  0  0  0  0  0  0  0
   -2.1033    8.6709    0.4925 H   0  0  0  0  0  0  0  0  0  0  0  0
   -3.7511   10.5523    0.0024 H   0  0  0  0  0  0  0  0  0  0  0  0
   -3.3909   10.2253   -1.7602 H   0  0  0  0  0  0  0  0  0  0  0  0
   -4.0441    7.8062   -1.2687 H   0  0  0  0  0  0  0  0  0  0  0  0
   -4.7598    8.4517    0.2669 H   0  0  0  0  0  0  0  0  0  0  0  0
   -5.3943   10.1469   -1.5172 H   0  0  0  0  0  0  0  0  0  0  0  0
   -5.6236    6.3182   -2.0094 H   0  0  0  0  0  0  0  0  0  0  0  0
   -6.6000    6.3383   -3.5170 H   0  0  0  0  0  0  0  0  0  0  0  0
   -4.9339    7.0097   -3.5170 H   0  0  0  0  0  0  0  0  0  0  0  0
   -8.0649    9.4644   -3.0392 H   0  0  0  0  0  0  0  0  0  0  0  0
   -6.6905    9.5657   -4.1914 H   0  0  0  0  0  0  0  0  0  0  0  0
   -7.7579    8.1210   -4.1914 H   0  0  0  0  0  0  0  0  0  0  0  0
   -1.8993   11.2331    0.2785 H   0  0  0  0  0  0  0  0  0  0  0  0
   -0.4005   10.4626    2.0080 H   0  0  0  0  0  0  0  0  0  0  0  0
    0.1739    9.1067    1.0143 H   0  0  0  0  0  0  0  0  0  0  0  0
    1.6138   11.5246    1.5167 H   0  0  0  0  0  0  0  0  0  0  0  0
    2.0251   10.3774    0.2448 H   0  0  0  0  0  0  0  0  0  0  0  0
    0.1794   12.9607    1.4922 H   0  0  0  0  0  0  0  0  0  0  0  0
    0.5436   14.1305    0.1785 H   0  0  0  0  0  0  0  0  0  0  0  0
   -1.0144   13.2364    0.1785 H   0  0  0  0  0  0  0  0  0  0  0  0
    2.2494   11.6632   -1.7946 H   0  0  0  0  0  0  0  0  0  0  0  0
    3.0943   12.9717    0.2574 H   0  0  0  0  0  0  0  0  0  0  0  0
    3.8020   13.2642   -1.4168 H   0  0  0  0  0  0  0  0  0  0  0  0
    3.3598   15.4055    0.0532 H   0  0  0  0  0  0  0  0  0  0  0  0
   -0.1490   14.7913   -1.8455 H   0  0  0  0  0  0  0  0  0  0  0  0
    1.7516   15.7912   -4.0550 H   0  0  0  0  0  0  0  0  0  0  0  0
    0.0049   15.3190   -4.2473 H   0  0  0  0  0  0  0  0  0  0  0  0
    0.3114   17.7739   -4.1969 H   0  0  0  0  0  0  0  0  0  0  0  0
   -0.6813   17.1576   -2.8184 H   0  0  0  0  0  0  0  0  0  0  0  0
    0.8442   18.8143   -1.9886 H   0  0  0  0  0  0  0  0  0  0  0  0
    3.1680   18.3600   -2.2360 H   0  0  0  0  0  0  0  0  0  0  0  0
    0.3927   17.0906    0.9429 H   0  0  0  0  0  0  0  0  0  0  0  0
   -0.3920   18.0327   -0.3698 H   0  0  0  0  0  0  0  0  0  0  0  0
   -0.4896   16.2391   -0.3698 H   0  0  0  0  0  0  0  0  0  0  0  0
    2.3248   17.5900    0.9603 H   0  0  0  0  0  0  0  0  0  0  0  0
    3.5272   17.2913   -0.3404 H   0  0  0  0  0  0  0  0  0  0  0  0
    2.5616   18.8061   -0.3404 H   0  0  0  0  0  0  0  0  0  0  0  0
    3.2651   13.2364   -3.3247 H   0  0  0  0  0  0  0  0  0  0  0  0
    2.0915   12.4043   -4.4004 H   0  0  0  0  0  0  0  0  0  0  0  0
    2.1948   14.1976   -4.4004 H   0  0  0  0  0  0  0  0  0  0  0  0
   -0.6640   13.4083   -3.7933 H   0  0  0  0  0  0  0  0  0  0  0  0
    0.2770   11.8121   -3.8258 H   0  0  0  0  0  0  0  0  0  0  0  0
   -1.5759   12.8222   -1.6513 H   0  0  0  0  0  0  0  0  0  0  0  0
   -1.7894   11.3997   -2.7459 H   0  0  0  0  0  0  0  0  0  0  0  0
    0.7607    9.2195   -1.3221 H   0  0  0  0  0  0  0  0  0  0  0  0
   -0.4145    9.4852   -2.6544 H   0  0  0  0  0  0  0  0  0  0  0  0
    1.1555   10.3579   -2.6544 H   0  0  0  0  0  0  0  0  0  0  0  0
  1  2  1  0
  2  3  1  0
  3  4  1  0
  4  5  1  0
  5  6  1  0
  6  7  1  0
  7  8  1  0
  7  9  1  0
  2 10  1  0
 10 11  1  0
 11 12  1  0
 12 13  1  0
 13 14  1  1
 13 15  1  0
 15 16  1  0
 16 17  1  0
 17 18  2  0
 18 19  1  0
 19 20  1  0
 20 21  1  0
 21 22  1  0
 22 23  1  0
 22 24  1  0
 24 25  1  0
 24 26  1  0
 19 27  1  0
 27 28  1  6
 27 29  1  0
 29 30  1  0
 30 31  1  0
 31 32  1  6
  7  5  1  0
 31 10  1  0
 31 13  1  0
 27 15  1  0
 24 18  1  0
  1 33  1  0
  1 34  1  0
  1 35  1  0
  2 36  1  1
  3 37  1  0
  3 38  1  0
  4 39  1  0
  4 40  1  0
  5 41  1  6
  8 42  1  0
  8 43  1  0
  8 44  1  0
  9 45  1  0
  9 46  1  0
  9 47  1  0
 10 48  1  1
 11 49  1  0
 11 50  1  0
 12 51  1  0
 12 52  1  0
 14 53  1  0
 14 54  1  0
 14 55  1  0
 15 56  1  6
 16 57  1  0
 16 58  1  0
 17 59  1  0
 19 60  1  1
 20 61  1  0
 20 62  1  0
 21 63  1  0
 21 64  1  0
 22 65  1  1
 23 66  1  0
 25 67  1  0
 25 68  1  0
 25 69  1  0
 26 70  1  0
 26 71  1  0
 26 72  1  0
 28 73  1  0
 28 74  1  0
 28 75  1  0
 29 76  1  0
 29 77  1  0
 30 78  1  0
 30 79  1  0
 32 80  1  0
 32 81  1  0
 32 82  1  0
M  END
>  <meeko>  (1) 
{"is_sidechain": [false], "intermolecular_energy": 2.731, "internal_energy": -0.839}

$$$$
EPH_relaxed_0001_pdb2pqr_Repair_106_r2_0001_out
     RDKit          3D

 82 86  0  0  0  0  0  0  0  0999 V2000
    4.1780   17.2160   -0.6460 C   0  0  0  0  0  0  0  0  0  0  0  0
    2.8120   17.8370   -0.3400 C   0  0  2  0  0  0  0  0  0  0  0  0
    2.8190   18.6380    0.9770 C   0  0  0  0  0  0  0  0  0  0  0  0
    4.1930   18.7010    1.6510 C   0  0  0  0  0  0  0  0  0  0  0  0
    4.1000   19.2330    3.0490 C   0  0  2  0  0  0  0  0  0  0  0  0
    5.1070   20.1940    3.3920 O   0  0  0  0  0  0  0  0  0  0  0  0
    5.1390   18.9560    4.1200 C   0  0  0  0  0  0  0  0  0  0  0  0
    6.3440   18.1150    3.8390 C   0  0  0  0  0  0  0  0  0  0  0  0
    4.7390   19.0910    5.5560 C   0  0  0  0  0  0  0  0  0  0  0  0
    1.7480   16.7470   -0.2810 C   0  0  1  0  0  0  0  0  0  0  0  0
    0.3110   17.3050   -0.4630 C   0  0  0  0  0  0  0  0  0  0  0  0
   -0.4910   16.2300   -1.2410 C   0  0  0  0  0  0  0  0  0  0  0  0
    0.4000   14.9660   -1.1910 C   0  0  1  0  0  0  0  0  0  0  0  0
    0.1250   14.3370    0.2110 C   0  0  0  0  0  0  0  0  0  0  0  0
    0.1910   13.9280   -2.3410 C   0  0  2  0  0  0  0  0  0  0  0  0
   -1.2080   13.2910   -2.3990 C   0  0  0  0  0  0  0  0  0  0  0  0
   -1.3700   12.0320   -1.6130 C   0  0  0  0  0  0  0  0  0  0  0  0
   -0.3650   11.2830   -1.1220 C   0  0  0  0  0  0  0  0  0  0  0  0
    1.0980   11.6290   -1.4260 C   0  0  1  0  0  0  0  0  0  0  0  0
    1.8580   10.3430   -1.8450 C   0  0  0  0  0  0  0  0  0  0  0  0
    1.7250    9.2240   -0.8160 C   0  0  0  0  0  0  0  0  0  0  0  0
    0.2590    8.8680   -0.5840 C   0  0  2  0  0  0  0  0  0  0  0  0
   -0.2690    8.2880   -1.7810 O   0  0  0  0  0  0  0  0  0  0  0  0
   -0.6090   10.0880   -0.1670 C   0  0  0  0  0  0  0  0  0  0  0  0
   -0.2310   10.5290    1.2690 C   0  0  0  0  0  0  0  0  0  0  0  0
   -2.0880    9.6220   -0.1020 C   0  0  0  0  0  0  0  0  0  0  0  0
    1.3290   12.8320   -2.4390 C   0  0  1  0  0  0  0  0  0  0  0  0
    1.3130   12.3030   -3.9060 C   0  0  0  0  0  0  0  0  0  0  0  0
    2.7630   13.4360   -2.2000 C   0  0  0  0  0  0  0  0  0  0  0  0
    2.8830   14.5430   -1.1350 C   0  0  0  0  0  0  0  0  0  0  0  0
    1.8190   15.6240   -1.3460 C   0  0  2  0  0  0  0  0  0  0  0  0
    2.0840   16.2900   -2.7400 C   0  0  0  0  0  0  0  0  0  0  0  0
    4.6937   16.9816    0.2969 H   0  0  0  0  0  0  0  0  0  0  0  0
    4.0390   16.2926   -1.2274 H   0  0  0  0  0  0  0  0  0  0  0  0
    4.7824   17.9278   -1.2274 H   0  0  0  0  0  0  0  0  0  0  0  0
    2.5794   18.5412   -1.1524 H   0  0  0  0  0  0  0  0  0  0  0  0
    2.4907   19.6653    0.7606 H   0  0  0  0  0  0  0  0  0  0  0  0
    2.1427   18.1196    1.6726 H   0  0  0  0  0  0  0  0  0  0  0  0
    4.6215   17.6884    1.6826 H   0  0  0  0  0  0  0  0  0  0  0  0
    4.8310   19.3806    1.0669 H   0  0  0  0  0  0  0  0  0  0  0  0
    3.0046   19.1326    3.0398 H   0  0  0  0  0  0  0  0  0  0  0  0
    6.7991   17.7974    4.7888 H   0  0  0  0  0  0  0  0  0  0  0  0
    6.0454   17.2281    3.2608 H   0  0  0  0  0  0  0  0  0  0  0  0
    7.0735   18.7011    3.2608 H   0  0  0  0  0  0  0  0  0  0  0  0
    5.5838   18.8059    6.2003 H   0  0  0  0  0  0  0  0  0  0  0  0
    4.4568   20.1341    5.7615 H   0  0  0  0  0  0  0  0  0  0  0  0
    3.8824   18.4322    5.7615 H   0  0  0  0  0  0  0  0  0  0  0  0
    1.9630   16.3338    0.7155 H   0  0  0  0  0  0  0  0  0  0  0  0
   -0.1519   17.4866    0.5182 H   0  0  0  0  0  0  0  0  0  0  0  0
    0.3243   18.2599   -1.0089 H   0  0  0  0  0  0  0  0  0  0  0  0
   -1.4600   16.0415   -0.7556 H   0  0  0  0  0  0  0  0  0  0  0  0
   -0.7153   16.5417   -2.2718 H   0  0  0  0  0  0  0  0  0  0  0  0
    0.4335   15.0427    0.9964 H   0  0  0  0  0  0  0  0  0  0  0  0
   -0.9491   14.1223    0.3123 H   0  0  0  0  0  0  0  0  0  0  0  0
    0.6968   13.4028    0.3123 H   0  0  0  0  0  0  0  0  0  0  0  0
    0.2715   14.5545   -3.2416 H   0  0  0  0  0  0  0  0  0  0  0  0
   -1.9318   14.0257   -2.0165 H   0  0  0  0  0  0  0  0  0  0  0  0
   -1.3729   13.0155   -3.4511 H   0  0  0  0  0  0  0  0  0  0  0  0
   -2.3965   11.6876   -1.4189 H   0  0  0  0  0  0  0  0  0  0  0  0
    1.5191   12.0223   -0.4890 H   0  0  0  0  0  0  0  0  0  0  0  0
    1.4519    9.9900   -2.8044 H   0  0  0  0  0  0  0  0  0  0  0  0
    2.9252   10.5970   -1.9264 H   0  0  0  0  0  0  0  0  0  0  0  0
    2.2582    8.3339   -1.1811 H   0  0  0  0  0  0  0  0  0  0  0  0
    2.1576    9.5682    0.1350 H   0  0  0  0  0  0  0  0  0  0  0  0
    0.2206    8.1555    0.2532 H   0  0  0  0  0  0  0  0  0  0  0  0
   -1.2370    8.2660   -1.6940 H   0  0  0  0  0  0  0  0  0  0  0  0
   -0.7672    9.9034    1.9978 H   0  0  0  0  0  0  0  0  0  0  0  0
    0.8532   10.4139    1.4145 H   0  0  0  0  0  0  0  0  0  0  0  0
   -0.5106   11.5829    1.4145 H   0  0  0  0  0  0  0  0  0  0  0  0
   -2.3960    9.5250    0.9495 H   0  0  0  0  0  0  0  0  0  0  0  0
   -2.7280   10.3620   -0.6047 H   0  0  0  0  0  0  0  0  0  0  0  0
   -2.1882    8.6488   -0.6047 H   0  0  0  0  0  0  0  0  0  0  0  0
    1.2797   11.2035   -3.8990 H   0  0  0  0  0  0  0  0  0  0  0  0
    0.4263   12.6933   -4.4269 H   0  0  0  0  0  0  0  0  0  0  0  0
    2.2217   12.6390   -4.4269 H   0  0  0  0  0  0  0  0  0  0  0  0
    3.4253   12.6111   -1.8984 H   0  0  0  0  0  0  0  0  0  0  0  0
    3.0327   13.9207   -3.1499 H   0  0  0  0  0  0  0  0  0  0  0  0
    2.7515   14.0985   -0.1375 H   0  0  0  0  0  0  0  0  0  0  0  0
    3.8766   15.0070   -1.2217 H   0  0  0  0  0  0  0  0  0  0  0  0
    2.4870   17.3028   -2.5918 H   0  0  0  0  0  0  0  0  0  0  0  0
    2.8100   15.6853   -3.3032 H   0  0  0  0  0  0  0  0  0  0  0  0
    1.1410   16.3494   -3.3032 H   0  0  0  0  0  0  0  0  0  0  0  0
  1  2  1  0
  2  3  1  0
  3  4  1  0
  4  5  1  0
  5  6  1  0
  6  7  1  0
  7  8  1  0
  7  9  1  0
  2 10  1  0
 10 11  1  0
 11 12  1  0
 12 13  1  0
 13 14  1  1
 13 15  1  0
 15 16  1  0
 16 17  1  0
 17 18  2  0
 18 19  1  0
 19 20  1  0
 20 21  1  0
 21 22  1  0
 22 23  1  0
 22 24  1  0
 24 25  1  0
 24 26  1  0
 19 27  1  0
 27 28  1  6
 27 29  1  0
 29 30  1  0
 30 31  1  0
 31 32  1  6
  7  5  1  0
 31 10  1  0
 31 13  1  0
 27 15  1  0
 24 18  1  0
  1 33  1  0
  1 34  1  0
  1 35  1  0
  2 36  1  6
  3 37  1  0
  3 38  1  0
  4 39  1  0
  4 40  1  0
  5 41  1  1
  8 42  1  0
  8 43  1  0
  8 44  1  0
  9 45  1  0
  9 46  1  0
  9 47  1  0
 10 48  1  1
 11 49  1  0
 11 50  1  0
 12 51  1  0
 12 52  1  0
 14 53  1  0
 14 54  1  0
 14 55  1  0
 15 56  1  6
 16 57  1  0
 16 58  1  0
 17 59  1  0
 19 60  1  1
 20 61  1  0
 20 62  1  0
 21 63  1  0
 21 64  1  0
 22 65  1  1
 23 66  1  0
 25 67  1  0
 25 68  1  0
 25 69  1  0
 26 70  1  0
 26 71  1  0
 26 72  1  0
 28 73  1  0
 28 74  1  0
 28 75  1  0
 29 76  1  0
 29 77  1  0
 30 78  1  0
 30 79  1  0
 32 80  1  0
 32 81  1  0
 32 82  1  0
M  END
>  <meeko>  (2) 
{"is_sidechain": [false], "intermolecular_energy": 2.731, "internal_energy": -0.839}

$$$$
EPH_relaxed_0001_pdb2pqr_Repair_106_r2_0001_out
     RDKit          3D

 82 86  0  0  0  0  0  0  0  0999 V2000
   -4.8870    6.3820   -2.4230 C   0  0  0  0  0  0  0  0  0  0  0  0
   -5.3540    7.8330   -2.2710 C   0  0  2  0  0  0  0  0  0  0  0  0
   -5.1500    8.3610   -0.8370 C   0  0  0  0  0  0  0  0  0  0  0  0
   -4.1680    9.5320   -0.7460 C   0  0  0  0  0  0  0  0  0  0  0  0
   -2.7440    9.0640   -0.7530 C   0  0  2  0  0  0  0  0  0  0  0  0
   -1.9190    9.6420    0.2670 O   0  0  0  0  0  0  0  0  0  0  0  0
   -1.5690    9.9640   -1.0890 C   0  0  0  0  0  0  0  0  0  0  0  0
   -1.7660   11.4040   -1.4430 C   0  0  0  0  0  0  0  0  0  0  0  0
   -0.2920    9.3310   -1.5470 C   0  0  0  0  0  0  0  0  0  0  0  0
   -6.8210    7.9510   -2.6650 C   0  0  1  0  0  0  0  0  0  0  0  0
   -7.1360    7.2470   -4.0120 C   0  0  0  0  0  0  0  0  0  0  0  0
   -8.5650    6.6590   -3.8860 C   0  0  0  0  0  0  0  0  0  0  0  0
   -9.1480    7.3200   -2.6150 C   0  0  1  0  0  0  0  0  0  0  0  0
   -9.6330    8.7280   -3.0810 C   0  0  0  0  0  0  0  0  0  0  0  0
  -10.2840    6.5310   -1.8850 C   0  0  2  0  0  0  0  0  0  0  0  0
  -11.5640    6.3160   -2.7110 C   0  0  0  0  0  0  0  0  0  0  0  0
  -12.6000    7.3830   -2.5710 C   0  0  0  0  0  0  0  0  0  0  0  0
  -12.6330    8.3180   -1.6040 C   0  0  0  0  0  0  0  0  0  0  0  0
  -11.6110    8.3050   -0.4600 C   0  0  1  0  0  0  0  0  0  0  0  0
  -12.3440    8.5090    0.8920 C   0  0  0  0  0  0  0  0  0  0  0  0
  -13.2150    9.7620    0.9020 C   0  0  0  0  0  0  0  0  0  0  0  0
  -14.2560    9.7110   -0.2130 C   0  0  2  0  0  0  0  0  0  0  0  0
  -15.1820    8.6570    0.0680 O   0  0  0  0  0  0  0  0  0  0  0  0
  -13.6350    9.4990   -1.6220 C   0  0  0  0  0  0  0  0  0  0  0  0
  -12.8730   10.7770   -2.0530 C   0  0  0  0  0  0  0  0  0  0  0  0
  -14.7980    9.3250   -2.6360 C   0  0  0  0  0  0  0  0  0  0  0  0
  -10.6150    7.0660   -0.4340 C   0  0  1  0  0  0  0  0  0  0  0  0
  -11.2640    5.8790    0.3420 C   0  0  0  0  0  0  0  0  0  0  0  0
   -9.3200    7.4650    0.3680 C   0  0  0  0  0  0  0  0  0  0  0  0
   -8.1860    8.1320   -0.4330 C   0  0  0  0  0  0  0  0  0  0  0  0
   -7.8680    7.3360   -1.7030 C   0  0  2  0  0  0  0  0  0  0  0  0
   -7.3570    5.9220   -1.2650 C   0  0  0  0  0  0  0  0  0  0  0  0
   -4.7437    5.9367   -1.4274 H   0  0  0  0  0  0  0  0  0  0  0  0
   -5.6459    5.8085   -2.9754 H   0  0  0  0  0  0  0  0  0  0  0  0
   -3.9360    6.3588   -2.9754 H   0  0  0  0  0  0  0  0  0  0  0  0
   -4.7382    8.4506   -2.9414 H   0  0  0  0  0  0  0  0  0  0  0  0
   -6.1236    8.6932   -0.4475 H   0  0  0  0  0  0  0  0  0  0  0  0
   -4.7218    7.5361   -0.2487 H   0  0  0  0  0  0  0  0  0  0  0  0
   -4.3281   10.1990   -1.6059 H   0  0  0  0  0  0  0  0  0  0  0  0
   -4.3507   10.0595    0.2018 H   0  0  0  0  0  0  0  0  0  0  0  0
   -3.0462    8.0747   -1.1271 H   0  0  0  0  0  0  0  0  0  0  0  0
   -1.8476   12.0001   -0.5221 H   0  0  0  0  0  0  0  0  0  0  0  0
   -0.9078   11.7571   -2.0336 H   0  0  0  0  0  0  0  0  0  0  0  0
   -2.6875   11.5136   -2.0336 H   0  0  0  0  0  0  0  0  0  0  0  0
    0.3050    9.0351   -0.6718 H   0  0  0  0  0  0  0  0  0  0  0  0
   -0.5203    8.4417   -2.1529 H   0  0  0  0  0  0  0  0  0  0  0  0
    0.2775   10.0511   -2.1529 H   0  0  0  0  0  0  0  0  0  0  0  0
   -6.9202    9.0464   -2.6789 H   0  0  0  0  0  0  0  0  0  0  0  0
   -7.0966    7.9732   -4.8372 H   0  0  0  0  0  0  0  0  0  0  0  0
   -6.4013    6.4568   -4.2259 H   0  0  0  0  0  0  0  0  0  0  0  0
   -9.1694    6.9147   -4.7688 H   0  0  0  0  0  0  0  0  0  0  0  0
   -8.5601    5.5610   -3.8204 H   0  0  0  0  0  0  0  0  0  0  0  0
   -9.8478    9.3517   -2.2007 H   0  0  0  0  0  0  0  0  0  0  0  0
   -8.8474    9.2049   -3.6854 H   0  0  0  0  0  0  0  0  0  0  0  0
  -10.5457    8.6199   -3.6854 H   0  0  0  0  0  0  0  0  0  0  0  0
   -9.8371    5.5333   -1.7627 H   0  0  0  0  0  0  0  0  0  0  0  0
  -11.2782    6.2567   -3.7716 H   0  0  0  0  0  0  0  0  0  0  0  0
  -12.0232    5.3934   -2.3264 H   0  0  0  0  0  0  0  0  0  0  0  0
  -13.4037    7.4063   -3.3217 H   0  0  0  0  0  0  0  0  0  0  0  0
  -10.9333    9.1508   -0.6480 H   0  0  0  0  0  0  0  0  0  0  0  0
  -12.9828    7.6340    1.0824 H   0  0  0  0  0  0  0  0  0  0  0  0
  -11.5781    8.6285    1.6724 H   0  0  0  0  0  0  0  0  0  0  0  0
  -13.7292    9.8354    1.8716 H   0  0  0  0  0  0  0  0  0  0  0  0
  -12.5707   10.6390    0.7413 H   0  0  0  0  0  0  0  0  0  0  0  0
  -14.7614   10.6877   -0.2367 H   0  0  0  0  0  0  0  0  0  0  0  0
  -15.7740    8.5730   -0.6990 H   0  0  0  0  0  0  0  0  0  0  0  0
  -12.5449   11.3273   -1.1589 H   0  0  0  0  0  0  0  0  0  0  0  0
  -11.9951   10.4956   -2.6531 H   0  0  0  0  0  0  0  0  0  0  0  0
  -13.5379   11.4155   -2.6531 H   0  0  0  0  0  0  0  0  0  0  0  0
  -15.7424    9.1837   -2.0900 H   0  0  0  0  0  0  0  0  0  0  0  0
  -14.8706   10.2223   -3.2682 H   0  0  0  0  0  0  0  0  0  0  0  0
  -14.6048    8.4458   -3.2682 H   0  0  0  0  0  0  0  0  0  0  0  0
  -11.1690    6.0527    1.4240 H   0  0  0  0  0  0  0  0  0  0  0  0
  -12.3284    5.8044    0.0746 H   0  0  0  0  0  0  0  0  0  0  0  0
  -10.7523    4.9427    0.0746 H   0  0  0  0  0  0  0  0  0  0  0  0
   -9.6222    8.1636    1.1621 H   0  0  0  0  0  0  0  0  0  0  0  0
   -8.8988    6.5143    0.7268 H   0  0  0  0  0  0  0  0  0  0  0  0
   -8.4948    9.1496   -0.7143 H   0  0  0  0  0  0  0  0  0  0  0  0
   -7.2841    8.1626    0.1960 H   0  0  0  0  0  0  0  0  0  0  0  0
   -7.3359    5.8637   -0.1667 H   0  0  0  0  0  0  0  0  0  0  0  0
   -8.0327    5.1493   -1.6603 H   0  0  0  0  0  0  0  0  0  0  0  0
   -6.3434    5.7598   -1.6603 H   0  0  0  0  0  0  0  0  0  0  0  0
  1  2  1  0
  2  3  1  0
  3  4  1  0
  4  5  1  0
  5  6  1  0
  6  7  1  0
  7  8  1  0
  7  9  1  0
  2 10  1  0
 10 11  1  0
 11 12  1  0
 12 13  1  0
 13 14  1  6
 13 15  1  0
 15 16  1  0
 16 17  1  0
 17 18  2  0
 18 19  1  0
 19 20  1  0
 20 21  1  0
 21 22  1  0
 22 23  1  0
 22 24  1  0
 24 25  1  0
 24 26  1  0
 19 27  1  0
 27 28  1  1
 27 29  1  0
 29 30  1  0
 30 31  1  0
 31 32  1  1
  7  5  1  0
 31 10  1  0
 31 13  1  0
 27 15  1  0
 24 18  1  0
  1 33  1  0
  1 34  1  0
  1 35  1  0
  2 36  1  6
  3 37  1  0
  3 38  1  0
  4 39  1  0
  4 40  1  0
  5 41  1  6
  8 42  1  0
  8 43  1  0
  8 44  1  0
  9 45  1  0
  9 46  1  0
  9 47  1  0
 10 48  1  6
 11 49  1  0
 11 50  1  0
 12 51  1  0
 12 52  1  0
 14 53  1  0
 14 54  1  0
 14 55  1  0
 15 56  1  1
 16 57  1  0
 16 58  1  0
 17 59  1  0
 19 60  1  6
 20 61  1  0
 20 62  1  0
 21 63  1  0
 21 64  1  0
 22 65  1  6
 23 66  1  0
 25 67  1  0
 25 68  1  0
 25 69  1  0
 26 70  1  0
 26 71  1  0
 26 72  1  0
 28 73  1  0
 28 74  1  0
 28 75  1  0
 29 76  1  0
 29 77  1  0
 30 78  1  0
 30 79  1  0
 32 80  1  0
 32 81  1  0
 32 82  1  0
M  END
>  <meeko>  (3) 
{"is_sidechain": [false], "intermolecular_energy": 2.731, "internal_energy": -0.839}

$$$$
EPH_relaxed_0001_pdb2pqr_Repair_106_r2_0001_out
     RDKit          3D

 82 86  0  0  0  0  0  0  0  0999 V2000
    2.0860   18.1800   -2.5850 C   0  0  0  0  0  0  0  0  0  0  0  0
    0.5700   17.9760   -2.6540 C   0  0  2  0  0  0  0  0  0  0  0  0
   -0.1380   18.4380   -1.3640 C   0  0  0  0  0  0  0  0  0  0  0  0
    0.5760   18.0050   -0.0810 C   0  0  0  0  0  0  0  0  0  0  0  0
    1.1720   19.1740    0.6430 C   0  0  2  0  0  0  0  0  0  0  0  0
    2.0730   19.9680   -0.1410 O   0  0  0  0  0  0  0  0  0  0  0  0
    2.6470   19.2830    0.9840 C   0  0  0  0  0  0  0  0  0  0  0  0
    3.6160   18.2050    0.6110 C   0  0  0  0  0  0  0  0  0  0  0  0
    3.0580   20.1930    2.0990 C   0  0  0  0  0  0  0  0  0  0  0  0
    0.2550   16.5090   -2.9230 C   0  0  1  0  0  0  0  0  0  0  0  0
    0.3440   16.1460   -4.4290 C   0  0  0  0  0  0  0  0  0  0  0  0
    0.8860   14.6950   -4.5080 C   0  0  0  0  0  0  0  0  0  0  0  0
    0.7770   14.1590   -3.0620 C   0  0  1  0  0  0  0  0  0  0  0  0
   -0.7140   13.7260   -2.9060 C   0  0  0  0  0  0  0  0  0  0  0  0
    1.7570   13.0020   -2.6790 C   0  0  2  0  0  0  0  0  0  0  0  0
    1.5780   11.7020   -3.4820 C   0  0  0  0  0  0  0  0  0  0  0  0
    0.6260   10.7140   -2.8930 C   0  0  0  0  0  0  0  0  0  0  0  0
    0.1610   10.7340   -1.6300 C   0  0  0  0  0  0  0  0  0  0  0  0
    0.6680   11.7710   -0.6200 C   0  0  1  0  0  0  0  0  0  0  0  0
    1.0040   11.0660    0.7210 C   0  0  0  0  0  0  0  0  0  0  0  0
   -0.1650   10.2480    1.2610 C   0  0  0  0  0  0  0  0  0  0  0  0
   -0.6030    9.1900    0.2520 C   0  0  2  0  0  0  0  0  0  0  0  0
    0.4440    8.2250    0.1120 O   0  0  0  0  0  0  0  0  0  0  0  0
   -0.9580    9.7810   -1.1410 C   0  0  0  0  0  0  0  0  0  0  0  0
   -2.2760   10.5890   -1.0420 C   0  0  0  0  0  0  0  0  0  0  0  0
   -1.2460    8.5970   -2.1030 C   0  0  0  0  0  0  0  0  0  0  0  0
    1.8430   12.7140   -1.1250 C   0  0  1  0  0  0  0  0  0  0  0  0
    3.2210   12.0270   -0.8750 C   0  0  0  0  0  0  0  0  0  0  0  0
    1.8450   14.0360   -0.2700 C   0  0  0  0  0  0  0  0  0  0  0  0
    0.9470   15.1850   -0.7670 C   0  0  0  0  0  0  0  0  0  0  0  0
    1.1720   15.4510   -2.2590 C   0  0  2  0  0  0  0  0  0  0  0  0
    2.6590   15.9100   -2.4440 C   0  0  0  0  0  0  0  0  0  0  0  0
    2.4027   18.2226   -1.5324 H   0  0  0  0  0  0  0  0  0  0  0  0
    2.5920   17.3418   -3.0865 H   0  0  0  0  0  0  0  0  0  0  0  0
    2.3524   19.1221   -3.0865 H   0  0  0  0  0  0  0  0  0  0  0  0
    0.1902   18.5961   -3.4794 H   0  0  0  0  0  0  0  0  0  0  0  0
   -0.1972   19.5364   -1.3747 H   0  0  0  0  0  0  0  0  0  0  0  0
   -1.1307   17.9641   -1.3549 H   0  0  0  0  0  0  0  0  0  0  0  0
   -0.1492   17.5081    0.5803 H   0  0  0  0  0  0  0  0  0  0  0  0
    1.3916   17.3203   -0.3567 H   0  0  0  0  0  0  0  0  0  0  0  0
    0.2632   19.2909    1.2516 H   0  0  0  0  0  0  0  0  0  0  0  0
    4.0262   17.7487    1.5240 H   0  0  0  0  0  0  0  0  0  0  0  0
    3.0990   17.4366    0.0174 H   0  0  0  0  0  0  0  0  0  0  0  0
    4.4350   18.6374    0.0174 H   0  0  0  0  0  0  0  0  0  0  0  0
    2.8407   19.7118    3.0640 H   0  0  0  0  0  0  0  0  0  0  0  0
    4.1362   20.3983    2.0262 H   0  0  0  0  0  0  0  0  0  0  0  0
    2.4992   21.1377    2.0262 H   0  0  0  0  0  0  0  0  0  0  0  0
   -0.7553   16.4551   -2.4914 H   0  0  0  0  0  0  0  0  0  0  0  0
   -0.6520   16.2041   -4.8922 H   0  0  0  0  0  0  0  0  0  0  0  0
    1.0038   16.8439   -4.9653 H   0  0  0  0  0  0  0  0  0  0  0  0
    0.2755   14.0892   -5.1938 H   0  0  0  0  0  0  0  0  0  0  0  0
    1.9162   14.6547   -4.8914 H   0  0  0  0  0  0  0  0  0  0  0  0
   -0.9648   13.6532   -1.8374 H   0  0  0  0  0  0  0  0  0  0  0  0
   -1.3646   14.4723   -3.3853 H   0  0  0  0  0  0  0  0  0  0  0  0
   -0.8637   12.7473   -3.3853 H   0  0  0  0  0  0  0  0  0  0  0  0
    2.7326   13.4088   -2.9835 H   0  0  0  0  0  0  0  0  0  0  0  0
    1.2131   11.9694   -4.4846 H   0  0  0  0  0  0  0  0  0  0  0  0
    2.5619   11.2101   -3.4877 H   0  0  0  0  0  0  0  0  0  0  0  0
    0.2751    9.9014   -3.5462 H   0  0  0  0  0  0  0  0  0  0  0  0
   -0.1590   12.4810   -0.4717 H   0  0  0  0  0  0  0  0  0  0  0  0
    1.8604   10.3943    0.5613 H   0  0  0  0  0  0  0  0  0  0  0  0
    1.2345   11.8472    1.4603 H   0  0  0  0  0  0  0  0  0  0  0  0
    0.1434    9.7511    2.1926 H   0  0  0  0  0  0  0  0  0  0  0  0
   -1.0108   10.9259    1.4482 H   0  0  0  0  0  0  0  0  0  0  0  0
   -1.5221    8.7260    0.6392 H   0  0  0  0  0  0  0  0  0  0  0  0
    0.6040    7.8350    0.9880 H   0  0  0  0  0  0  0  0  0  0  0  0
   -2.5315   10.7456    0.0164 H   0  0  0  0  0  0  0  0  0  0  0  0
   -2.1468   11.5633   -1.5361 H   0  0  0  0  0  0  0  0  0  0  0  0
   -3.0856   10.0319   -1.5361 H   0  0  0  0  0  0  0  0  0  0  0  0
   -1.4659    7.6929   -1.5162 H   0  0  0  0  0  0  0  0  0  0  0  0
   -2.1108    8.8419   -2.7372 H   0  0  0  0  0  0  0  0  0  0  0  0
   -0.3654    8.4173   -2.7372 H   0  0  0  0  0  0  0  0  0  0  0  0
    3.3962   11.9397    0.2074 H   0  0  0  0  0  0  0  0  0  0  0  0
    3.2186   11.0246   -1.3281 H   0  0  0  0  0  0  0  0  0  0  0  0
    4.0200   12.6322   -1.3281 H   0  0  0  0  0  0  0  0  0  0  0  0
    1.5189   13.7749    0.7476 H   0  0  0  0  0  0  0  0  0  0  0  0
    2.8725   14.4226   -0.3393 H   0  0  0  0  0  0  0  0  0  0  0  0
   -0.1067   14.9141   -0.6047 H   0  0  0  0  0  0  0  0  0  0  0  0
    1.2011   16.0965   -0.2061 H   0  0  0  0  0  0  0  0  0  0  0  0
    3.1239   16.0535   -1.4574 H   0  0  0  0  0  0  0  0  0  0  0  0
    3.2133   15.1411   -3.0022 H   0  0  0  0  0  0  0  0  0  0  0  0
    2.6835   16.8575   -3.0022 H   0  0  0  0  0  0  0  0  0  0  0  0
  1  2  1  0
  2  3  1  0
  3  4  1  0
  4  5  1  0
  5  6  1  0
  6  7  1  0
  7  8  1  0
  7  9  1  0
  2 10  1  0
 10 11  1  0
 11 12  1  0
 12 13  1  0
 13 14  1  1
 13 15  1  0
 15 16  1  0
 16 17  1  0
 17 18  2  0
 18 19  1  0
 19 20  1  0
 20 21  1  0
 21 22  1  0
 22 23  1  0
 22 24  1  0
 24 25  1  0
 24 26  1  0
 19 27  1  0
 27 28  1  6
 27 29  1  0
 29 30  1  0
 30 31  1  0
 31 32  1  1
  7  5  1  0
 31 10  1  0
 31 13  1  0
 27 15  1  0
 24 18  1  0
  1 33  1  0
  1 34  1  0
  1 35  1  0
  2 36  1  6
  3 37  1  0
  3 38  1  0
  4 39  1  0
  4 40  1  0
  5 41  1  1
  8 42  1  0
  8 43  1  0
  8 44  1  0
  9 45  1  0
  9 46  1  0
  9 47  1  0
 10 48  1  1
 11 49  1  0
 11 50  1  0
 12 51  1  0
 12 52  1  0
 14 53  1  0
 14 54  1  0
 14 55  1  0
 15 56  1  6
 16 57  1  0
 16 58  1  0
 17 59  1  0
 19 60  1  1
 20 61  1  0
 20 62  1  0
 21 63  1  0
 21 64  1  0
 22 65  1  1
 23 66  1  0
 25 67  1  0
 25 68  1  0
 25 69  1  0
 26 70  1  0
 26 71  1  0
 26 72  1  0
 28 73  1  0
 28 74  1  0
 28 75  1  0
 29 76  1  0
 29 77  1  0
 30 78  1  0
 30 79  1  0
 32 80  1  0
 32 81  1  0
 32 82  1  0
M  END
>  <meeko>  (4) 
{"is_sidechain": [false], "intermolecular_energy": 2.731, "internal_energy": -0.839}

$$$$
EPH_relaxed_0001_pdb2pqr_Repair_106_r2_0001_out
     RDKit          3D

 82 86  0  0  0  0  0  0  0  0999 V2000
    2.3360   18.0330   -2.6960 C   0  0  0  0  0  0  0  0  0  0  0  0
    1.0490   17.6160   -1.9790 C   0  0  2  0  0  0  0  0  0  0  0  0
    1.1900   17.6880   -0.4450 C   0  0  0  0  0  0  0  0  0  0  0  0
    0.8480   19.0610    0.1400 C   0  0  0  0  0  0  0  0  0  0  0  0
   -0.6000   19.1600    0.5130 C   0  0  2  0  0  0  0  0  0  0  0  0
   -1.4650   18.2680   -0.2020 O   0  0  0  0  0  0  0  0  0  0  0  0
   -1.6740   19.6720   -0.4280 C   0  0  0  0  0  0  0  0  0  0  0  0
   -1.3450   20.1200   -1.8180 C   0  0  0  0  0  0  0  0  0  0  0  0
   -2.9500   20.1930    0.1570 C   0  0  0  0  0  0  0  0  0  0  0  0
    0.6530   16.2050   -2.3990 C   0  0  1  0  0  0  0  0  0  0  0  0
    0.8470   15.9580   -3.9190 C   0  0  0  0  0  0  0  0  0  0  0  0
    1.2870   14.4800   -4.0800 C   0  0  0  0  0  0  0  0  0  0  0  0
    1.0130   13.8390   -2.6990 C   0  0  1  0  0  0  0  0  0  0  0  0
   -0.5140   13.5160   -2.7030 C   0  0  0  0  0  0  0  0  0  0  0  0
    1.8690   12.5810   -2.3390 C   0  0  2  0  0  0  0  0  0  0  0  0
    1.6670   11.3690   -3.2650 C   0  0  0  0  0  0  0  0  0  0  0  0
    0.5980   10.4150   -2.8430 C   0  0  0  0  0  0  0  0  0  0  0  0
    0.0260   10.3710   -1.6250 C   0  0  0  0  0  0  0  0  0  0  0  0
    0.5170   11.2790   -0.4900 C   0  0  1  0  0  0  0  0  0  0  0  0
    0.6820   10.4440    0.8070 C   0  0  0  0  0  0  0  0  0  0  0  0
   -0.5870    9.6820    1.1770 C   0  0  0  0  0  0  0  0  0  0  0  0
   -1.0100    8.7460    0.0470 C   0  0  2  0  0  0  0  0  0  0  0  0
   -0.0270    7.7150   -0.0900 O   0  0  0  0  0  0  0  0  0  0  0  0
   -1.1980    9.4740   -1.3130 C   0  0  0  0  0  0  0  0  0  0  0  0
   -2.4570   10.3740   -1.2520 C   0  0  0  0  0  0  0  0  0  0  0  0
   -1.4850    8.3980   -2.3950 C   0  0  0  0  0  0  0  0  0  0  0  0
    1.7970   12.1630   -0.8150 C   0  0  1  0  0  0  0  0  0  0  0  0
    3.0940   11.3510   -0.5140 C   0  0  0  0  0  0  0  0  0  0  0  0
    1.8200   13.4080    0.1490 C   0  0  0  0  0  0  0  0  0  0  0  0
    1.0550   14.6620   -0.3180 C   0  0  0  0  0  0  0  0  0  0  0  0
    1.4290   15.0280   -1.7570 C   0  0  2  0  0  0  0  0  0  0  0  0
    2.9560   15.3790   -1.7800 C   0  0  0  0  0  0  0  0  0  0  0  0
    3.1062   18.2826   -1.9514 H   0  0  0  0  0  0  0  0  0  0  0  0
    2.6900   17.2036   -3.3259 H   0  0  0  0  0  0  0  0  0  0  0  0
    2.1364   18.9124   -3.3259 H   0  0  0  0  0  0  0  0  0  0  0  0
    0.2619   18.3261   -2.2728 H   0  0  0  0  0  0  0  0  0  0  0  0
    0.5155   16.9424    0.0013 H   0  0  0  0  0  0  0  0  0  0  0  0
    2.2464   17.4919   -0.2094 H   0  0  0  0  0  0  0  0  0  0  0  0
    1.4598   19.2279    1.0388 H   0  0  0  0  0  0  0  0  0  0  0  0
    1.0573   19.8218   -0.6264 H   0  0  0  0  0  0  0  0  0  0  0  0
   -0.3389   19.4254    1.5481 H   0  0  0  0  0  0  0  0  0  0  0  0
   -0.6944   21.0059   -1.7734 H   0  0  0  0  0  0  0  0  0  0  0  0
   -0.8255   19.3100   -2.3510 H   0  0  0  0  0  0  0  0  0  0  0  0
   -2.2733   20.3733   -2.3510 H   0  0  0  0  0  0  0  0  0  0  0  0
   -2.8873   20.1674    1.2549 H   0  0  0  0  0  0  0  0  0  0  0  0
   -3.1105   21.2287   -0.1771 H   0  0  0  0  0  0  0  0  0  0  0  0
   -3.7896   19.5657   -0.1771 H   0  0  0  0  0  0  0  0  0  0  0  0
   -0.3926   16.1972   -2.0574 H   0  0  0  0  0  0  0  0  0  0  0  0
   -0.0978   16.1323   -4.4546 H   0  0  0  0  0  0  0  0  0  0  0  0
    1.6003   16.6419   -4.3371 H   0  0  0  0  0  0  0  0  0  0  0  0
    0.6966   13.9821   -4.8633 H   0  0  0  0  0  0  0  0  0  0  0  0
    2.3412   14.3888   -4.3806 H   0  0  0  0  0  0  0  0  0  0  0  0
   -0.8753   13.4396   -1.6669 H   0  0  0  0  0  0  0  0  0  0  0  0
   -1.0573   14.3191   -3.2225 H   0  0  0  0  0  0  0  0  0  0  0  0
   -0.6856   12.5617   -3.2225 H   0  0  0  0  0  0  0  0  0  0  0  0
    2.8949   12.9315   -2.5250 H   0  0  0  0  0  0  0  0  0  0  0  0
    1.4108   11.7453   -4.2664 H   0  0  0  0  0  0  0  0  0  0  0  0
    2.6095   10.8026   -3.2350 H   0  0  0  0  0  0  0  0  0  0  0  0
    0.2487    9.6872   -3.5902 H   0  0  0  0  0  0  0  0  0  0  0  0
   -0.2660   12.0382   -0.3468 H   0  0  0  0  0  0  0  0  0  0  0  0
    1.4974    9.7206    0.6594 H   0  0  0  0  0  0  0  0  0  0  0  0
    0.9039   11.1419    1.6277 H   0  0  0  0  0  0  0  0  0  0  0  0
   -0.3994    9.0892    2.0844 H   0  0  0  0  0  0  0  0  0  0  0  0
   -1.3943   10.4083    1.3524 H   0  0  0  0  0  0  0  0  0  0  0  0
   -1.9906    8.3261    0.3156 H   0  0  0  0  0  0  0  0  0  0  0  0
   -0.3110    7.1340   -0.8160 H   0  0  0  0  0  0  0  0  0  0  0  0
   -2.7218   10.5633   -0.2013 H   0  0  0  0  0  0  0  0  0  0  0  0
   -2.2494   11.3296   -1.7557 H   0  0  0  0  0  0  0  0  0  0  0  0
   -3.2940    9.8683   -1.7557 H   0  0  0  0  0  0  0  0  0  0  0  0
   -1.7390    7.4456   -1.9067 H   0  0  0  0  0  0  0  0  0  0  0  0
   -2.3275    8.7245   -3.0224 H   0  0  0  0  0  0  0  0  0  0  0  0
   -0.5918    8.2616   -3.0224 H   0  0  0  0  0  0  0  0  0  0  0  0
    3.2293   11.2663    0.5744 H   0  0  0  0  0  0  0  0  0  0  0  0
    3.0072   10.3457   -0.9520 H   0  0  0  0  0  0  0  0  0  0  0  0
    3.9604   11.8682   -0.9520 H   0  0  0  0  0  0  0  0  0  0  0  0
    1.3875   13.0929    1.1101 H   0  0  0  0  0  0  0  0  0  0  0  0
    2.8750   13.7155    0.1973 H   0  0  0  0  0  0  0  0  0  0  0  0
   -0.0258   14.4642   -0.2663 H   0  0  0  0  0  0  0  0  0  0  0  0
    1.3245   15.5021    0.3389 H   0  0  0  0  0  0  0  0  0  0  0  0
    3.3281   15.4645   -0.7484 H   0  0  0  0  0  0  0  0  0  0  0  0
    3.5071   14.5841   -2.3039 H   0  0  0  0  0  0  0  0  0  0  0  0
    3.1047   16.3347   -2.3039 H   0  0  0  0  0  0  0  0  0  0  0  0
  1  2  1  0
  2  3  1  0
  3  4  1  0
  4  5  1  0
  5  6  1  0
  6  7  1  0
  7  8  1  0
  7  9  1  0
  2 10  1  0
 10 11  1  0
 11 12  1  0
 12 13  1  0
 13 14  1  6
 13 15  1  0
 15 16  1  0
 16 17  1  0
 17 18  2  0
 18 19  1  0
 19 20  1  0
 20 21  1  0
 21 22  1  0
 22 23  1  0
 22 24  1  0
 24 25  1  0
 24 26  1  0
 19 27  1  0
 27 28  1  1
 27 29  1  0
 29 30  1  0
 30 31  1  0
 31 32  1  1
  7  5  1  0
 31 10  1  0
 31 13  1  0
 27 15  1  0
 24 18  1  0
  1 33  1  0
  1 34  1  0
  1 35  1  0
  2 36  1  6
  3 37  1  0
  3 38  1  0
  4 39  1  0
  4 40  1  0
  5 41  1  1
  8 42  1  0
  8 43  1  0
  8 44  1  0
  9 45  1  0
  9 46  1  0
  9 47  1  0
 10 48  1  6
 11 49  1  0
 11 50  1  0
 12 51  1  0
 12 52  1  0
 14 53  1  0
 14 54  1  0
 14 55  1  0
 15 56  1  1
 16 57  1  0
 16 58  1  0
 17 59  1  0
 19 60  1  1
 20 61  1  0
 20 62  1  0
 21 63  1  0
 21 64  1  0
 22 65  1  1
 23 66  1  0
 25 67  1  0
 25 68  1  0
 25 69  1  0
 26 70  1  0
 26 71  1  0
 26 72  1  0
 28 73  1  0
 28 74  1  0
 28 75  1  0
 29 76  1  0
 29 77  1  0
 30 78  1  0
 30 79  1  0
 32 80  1  0
 32 81  1  0
 32 82  1  0
M  END
>  <meeko>  (5) 
{"is_sidechain": [false], "intermolecular_energy": 2.731, "internal_energy": -0.839}

$$$$
EPH_relaxed_0001_pdb2pqr_Repair_106_r2_0001_out
     RDKit          3D

 82 86  0  0  0  0  0  0  0  0999 V2000
    3.6440   17.8500    0.8720 C   0  0  0  0  0  0  0  0  0  0  0  0
    2.7260   18.2210   -0.2970 C   0  0  2  0  0  0  0  0  0  0  0  0
    2.0190   19.5730   -0.0730 C   0  0  0  0  0  0  0  0  0  0  0  0
    0.9360   19.5300    1.0080 C   0  0  0  0  0  0  0  0  0  0  0  0
   -0.3480   20.1380    0.5310 C   0  0  2  0  0  0  0  0  0  0  0  0
   -1.3870   20.1940    1.5170 O   0  0  0  0  0  0  0  0  0  0  0  0
   -1.6390   19.3540    0.3780 C   0  0  0  0  0  0  0  0  0  0  0  0
   -1.7090   17.8950    0.7020 C   0  0  0  0  0  0  0  0  0  0  0  0
   -2.6940   19.8860   -0.5410 C   0  0  0  0  0  0  0  0  0  0  0  0
    1.6930   17.1220   -0.5150 C   0  0  1  0  0  0  0  0  0  0  0  0
    0.4740   17.6050   -1.3450 C   0  0  0  0  0  0  0  0  0  0  0  0
    0.0200   16.4040   -2.2140 C   0  0  0  0  0  0  0  0  0  0  0  0
    0.7700   15.1880   -1.6210 C   0  0  1  0  0  0  0  0  0  0  0  0
   -0.0720   14.7670   -0.3760 C   0  0  0  0  0  0  0  0  0  0  0  0
    1.0100   13.9850   -2.5900 C   0  0  2  0  0  0  0  0  0  0  0  0
   -0.2660   13.3070   -3.1180 C   0  0  0  0  0  0  0  0  0  0  0  0
   -0.7760   12.1750   -2.2890 C   0  0  0  0  0  0  0  0  0  0  0  0
   -0.0840   11.5350   -1.3280 C   0  0  0  0  0  0  0  0  0  0  0  0
    1.3880   11.8750   -1.0590 C   0  0  1  0  0  0  0  0  0  0  0  0
    2.2080   10.5630   -0.9380 C   0  0  0  0  0  0  0  0  0  0  0  0
    1.6310    9.6060    0.1000 C   0  0  0  0  0  0  0  0  0  0  0  0
    0.1860    9.2460   -0.2340 C   0  0  2  0  0  0  0  0  0  0  0  0
    0.1680    8.4800   -1.4420 O   0  0  0  0  0  0  0  0  0  0  0  0
   -0.7350   10.4890   -0.3900 C   0  0  0  0  0  0  0  0  0  0  0  0
   -0.9570   11.1490    0.9940 C   0  0  0  0  0  0  0  0  0  0  0  0
   -2.1280    9.9950   -0.8640 C   0  0  0  0  0  0  0  0  0  0  0  0
    2.0520   12.9200   -2.0550 C   0  0  1  0  0  0  0  0  0  0  0  0
    2.6140   12.1790   -3.3060 C   0  0  0  0  0  0  0  0  0  0  0  0
    3.2860   13.5940   -1.3460 C   0  0  0  0  0  0  0  0  0  0  0  0
    3.0010   14.8490   -0.5000 C   0  0  0  0  0  0  0  0  0  0  0  0
    2.1520   15.8570   -1.2820 C   0  0  2  0  0  0  0  0  0  0  0  0
    2.9820   16.3160   -2.5280 C   0  0  0  0  0  0  0  0  0  0  0  0
    3.1300   18.0577    1.8221 H   0  0  0  0  0  0  0  0  0  0  0  0
    3.8940   16.7802    0.8167 H   0  0  0  0  0  0  0  0  0  0  0  0
    4.5671   18.4457    0.8167 H   0  0  0  0  0  0  0  0  0  0  0  0
    3.3552   18.3224   -1.1935 H   0  0  0  0  0  0  0  0  0  0  0  0
    2.7750   20.3154    0.2223 H   0  0  0  0  0  0  0  0  0  0  0  0
    1.5198   19.8349   -1.0176 H   0  0  0  0  0  0  0  0  0  0  0  0
    0.7521   18.4819    1.2869 H   0  0  0  0  0  0  0  0  0  0  0  0
    1.2906   20.1115    1.8718 H   0  0  0  0  0  0  0  0  0  0  0  0
    0.1953   20.8058   -0.1537 H   0  0  0  0  0  0  0  0  0  0  0  0
   -1.7154   17.7618    1.7939 H   0  0  0  0  0  0  0  0  0  0  0  0
   -2.6286   17.4683    0.2752 H   0  0  0  0  0  0  0  0  0  0  0  0
   -0.8344   17.3822    0.2752 H   0  0  0  0  0  0  0  0  0  0  0  0
   -3.5210   20.3030    0.0525 H   0  0  0  0  0  0  0  0  0  0  0  0
   -2.2638   20.6749   -1.1754 H   0  0  0  0  0  0  0  0  0  0  0  0
   -3.0726   19.0710   -1.1754 H   0  0  0  0  0  0  0  0  0  0  0  0
    1.4704   16.8674    0.5317 H   0  0  0  0  0  0  0  0  0  0  0  0
   -0.3407   17.9171   -0.6750 H   0  0  0  0  0  0  0  0  0  0  0  0
    0.7407   18.4680   -1.9727 H   0  0  0  0  0  0  0  0  0  0  0  0
   -1.0684   16.2619   -2.1419 H   0  0  0  0  0  0  0  0  0  0  0  0
    0.2438   16.5526   -3.2807 H   0  0  0  0  0  0  0  0  0  0  0  0
    0.4701   15.0381    0.5420 H   0  0  0  0  0  0  0  0  0  0  0  0
   -1.0414   15.2865   -0.3963 H   0  0  0  0  0  0  0  0  0  0  0  0
   -0.2381   13.6798   -0.3963 H   0  0  0  0  0  0  0  0  0  0  0  0
    1.4706   14.4728   -3.4617 H   0  0  0  0  0  0  0  0  0  0  0  0
   -1.0569   14.0693   -3.1759 H   0  0  0  0  0  0  0  0  0  0  0  0
    0.0006   12.8740   -4.0934 H   0  0  0  0  0  0  0  0  0  0  0  0
   -1.8046   11.8350   -2.4797 H   0  0  0  0  0  0  0  0  0  0  0  0
    1.4052   12.4162   -0.1015 H   0  0  0  0  0  0  0  0  0  0  0  0
    2.2146   10.0599   -1.9162 H   0  0  0  0  0  0  0  0  0  0  0  0
    3.2241   10.8331   -0.6146 H   0  0  0  0  0  0  0  0  0  0  0  0
    2.2359    8.6874    0.1183 H   0  0  0  0  0  0  0  0  0  0  0  0
    1.6517   10.0997    1.0827 H   0  0  0  0  0  0  0  0  0  0  0  0
   -0.2118    8.6644    0.6107 H   0  0  0  0  0  0  0  0  0  0  0  0
    0.8660    8.8300   -2.0220 H   0  0  0  0  0  0  0  0  0  0  0  0
   -0.7142   10.4271    1.7877 H   0  0  0  0  0  0  0  0  0  0  0  0
   -0.3059   12.0306    1.0885 H   0  0  0  0  0  0  0  0  0  0  0  0
   -2.0085   11.4579    1.0885 H   0  0  0  0  0  0  0  0  0  0  0  0
   -2.7556    9.7724    0.0116 H   0  0  0  0  0  0  0  0  0  0  0  0
   -2.6080   10.7777   -1.4697 H   0  0  0  0  0  0  0  0  0  0  0  0
   -2.0076    9.0847   -1.4697 H   0  0  0  0  0  0  0  0  0  0  0  0
    3.2491   11.3416   -2.9815 H   0  0  0  0  0  0  0  0  0  0  0  0
    1.7791   11.7935   -3.9096 H   0  0  0  0  0  0  0  0  0  0  0  0
    3.2103   12.8790   -3.9096 H   0  0  0  0  0  0  0  0  0  0  0  0
    3.7405   12.8425   -0.6837 H   0  0  0  0  0  0  0  0  0  0  0  0
    3.9344   13.9399   -2.1645 H   0  0  0  0  0  0  0  0  0  0  0  0
    2.4602   14.5535    0.4112 H   0  0  0  0  0  0  0  0  0  0  0  0
    3.9595   15.3232   -0.2424 H   0  0  0  0  0  0  0  0  0  0  0  0
    3.8985   16.8228   -2.1916 H   0  0  0  0  0  0  0  0  0  0  0  0
    3.2499   15.4378   -3.1338 H   0  0  0  0  0  0  0  0  0  0  0  0
    2.3806   17.0098   -3.1338 H   0  0  0  0  0  0  0  0  0  0  0  0
  1  2  1  0
  2  3  1  0
  3  4  1  0
  4  5  1  0
  5  6  1  0
  6  7  1  0
  7  8  1  0
  7  9  1  0
  2 10  1  0
 10 11  1  0
 11 12  1  0
 12 13  1  0
 13 14  1  1
 13 15  1  0
 15 16  1  0
 16 17  1  0
 17 18  2  0
 18 19  1  0
 19 20  1  0
 20 21  1  0
 21 22  1  0
 22 23  1  0
 22 24  1  0
 24 25  1  0
 24 26  1  0
 19 27  1  0
 27 28  1  6
 27 29  1  0
 29 30  1  0
 30 31  1  0
 31 32  1  6
  7  5  1  0
 31 10  1  0
 31 13  1  0
 27 15  1  0
 24 18  1  0
  1 33  1  0
  1 34  1  0
  1 35  1  0
  2 36  1  6
  3 37  1  0
  3 38  1  0
  4 39  1  0
  4 40  1  0
  5 41  1  6
  8 42  1  0
  8 43  1  0
  8 44  1  0
  9 45  1  0
  9 46  1  0
  9 47  1  0
 10 48  1  1
 11 49  1  0
 11 50  1  0
 12 51  1  0
 12 52  1  0
 14 53  1  0
 14 54  1  0
 14 55  1  0
 15 56  1  6
 16 57  1  0
 16 58  1  0
 17 59  1  0
 19 60  1  1
 20 61  1  0
 20 62  1  0
 21 63  1  0
 21 64  1  0
 22 65  1  1
 23 66  1  0
 25 67  1  0
 25 68  1  0
 25 69  1  0
 26 70  1  0
 26 71  1  0
 26 72  1  0
 28 73  1  0
 28 74  1  0
 28 75  1  0
 29 76  1  0
 29 77  1  0
 30 78  1  0
 30 79  1  0
 32 80  1  0
 32 81  1  0
 32 82  1  0
M  END
>  <meeko>  (6) 
{"is_sidechain": [false], "intermolecular_energy": 2.731, "internal_energy": -0.839}

$$$$
EPH_relaxed_0001_pdb2pqr_Repair_106_r2_0001_out
     RDKit          3D

 82 86  0  0  0  0  0  0  0  0999 V2000
    0.4310    8.8520   -2.3350 C   0  0  0  0  0  0  0  0  0  0  0  0
    1.1790    9.9810   -3.0510 C   0  0  2  0  0  0  0  0  0  0  0  0
    2.6770   10.0070   -2.6870 C   0  0  0  0  0  0  0  0  0  0  0  0
    3.5670   10.5940   -3.7860 C   0  0  0  0  0  0  0  0  0  0  0  0
    4.9690   10.8150   -3.3050 C   0  0  2  0  0  0  0  0  0  0  0  0
    5.5750   12.0300   -3.7650 O   0  0  0  0  0  0  0  0  0  0  0  0
    6.1790   10.8080   -4.2210 C   0  0  0  0  0  0  0  0  0  0  0  0
    6.0420   10.5730   -5.6920 C   0  0  0  0  0  0  0  0  0  0  0  0
    7.5260   10.5420   -3.6250 C   0  0  0  0  0  0  0  0  0  0  0  0
    0.5380   11.3220   -2.7160 C   0  0  1  0  0  0  0  0  0  0  0  0
   -0.8680   11.1700   -2.0760 C   0  0  0  0  0  0  0  0  0  0  0  0
   -1.0150   12.3160   -1.0420 C   0  0  0  0  0  0  0  0  0  0  0  0
    0.1570   13.2760   -1.3540 C   0  0  1  0  0  0  0  0  0  0  0  0
   -0.3370   14.1320   -2.5620 C   0  0  0  0  0  0  0  0  0  0  0  0
    0.6480   14.1740   -0.1720 C   0  0  2  0  0  0  0  0  0  0  0  0
   -0.3970   15.1630    0.3730 C   0  0  0  0  0  0  0  0  0  0  0  0
   -0.4020   16.5070   -0.2760 C   0  0  0  0  0  0  0  0  0  0  0  0
    0.5770   17.0030   -1.0560 C   0  0  0  0  0  0  0  0  0  0  0  0
    1.8810   16.2250   -1.2730 C   0  0  1  0  0  0  0  0  0  0  0  0
    3.0900   17.1820   -1.0990 C   0  0  0  0  0  0  0  0  0  0  0  0
    2.9910   18.4170   -1.9900 C   0  0  0  0  0  0  0  0  0  0  0  0
    1.7100   19.1950   -1.7030 C   0  0  2  0  0  0  0  0  0  0  0  0
    1.7870   19.7400   -0.3820 O   0  0  0  0  0  0  0  0  0  0  0  0
    0.4250   18.3310   -1.8380 C   0  0  0  0  0  0  0  0  0  0  0  0
    0.1800   17.9920   -3.3290 C   0  0  0  0  0  0  0  0  0  0  0  0
   -0.7820   19.1970   -1.3860 C   0  0  0  0  0  0  0  0  0  0  0  0
    2.0370   14.8850   -0.4330 C   0  0  1  0  0  0  0  0  0  0  0  0
    2.6440   15.2030    0.9680 C   0  0  0  0  0  0  0  0  0  0  0  0
    3.0670   13.9410   -1.1590 C   0  0  0  0  0  0  0  0  0  0  0  0
    2.5010   12.9920   -2.2330 C   0  0  0  0  0  0  0  0  0  0  0  0
    1.2800   12.2330   -1.7060 C   0  0  2  0  0  0  0  0  0  0  0  0
    1.7500   11.3450   -0.5030 C   0  0  0  0  0  0  0  0  0  0  0  0
    0.5197    8.9859   -1.2468 H   0  0  0  0  0  0  0  0  0  0  0  0
   -0.6306    8.8758   -2.6220 H   0  0  0  0  0  0  0  0  0  0  0  0
    0.8668    7.8837   -2.6220 H   0  0  0  0  0  0  0  0  0  0  0  0
    1.1057    9.7936   -4.1324 H   0  0  0  0  0  0  0  0  0  0  0  0
    2.8030   10.6127   -1.7775 H   0  0  0  0  0  0  0  0  0  0  0  0
    2.9910    8.9627   -2.5424 H   0  0  0  0  0  0  0  0  0  0  0  0
    3.5878    9.8980   -4.6375 H   0  0  0  0  0  0  0  0  0  0  0  0
    3.1488   11.5673   -4.0825 H   0  0  0  0  0  0  0  0  0  0  0  0
    4.7539   10.2891   -2.3631 H   0  0  0  0  0  0  0  0  0  0  0  0
    5.4948    9.6344   -5.8640 H   0  0  0  0  0  0  0  0  0  0  0  0
    5.4893   11.4083   -6.1468 H   0  0  0  0  0  0  0  0  0  0  0  0
    7.0411   10.5036   -6.1468 H   0  0  0  0  0  0  0  0  0  0  0  0
    7.4508   10.5568   -2.5277 H   0  0  0  0  0  0  0  0  0  0  0  0
    7.8845    9.5557   -3.9547 H   0  0  0  0  0  0  0  0  0  0  0  0
    8.2325   11.3180   -3.9547 H   0  0  0  0  0  0  0  0  0  0  0  0
    0.5453   11.7834   -3.7145 H   0  0  0  0  0  0  0  0  0  0  0  0
   -1.6468   11.2543   -2.8482 H   0  0  0  0  0  0  0  0  0  0  0  0
   -0.9787   10.1871   -1.5947 H   0  0  0  0  0  0  0  0  0  0  0  0
   -1.9803   12.8288   -1.1653 H   0  0  0  0  0  0  0  0  0  0  0  0
   -0.9885   11.9485   -0.0055 H   0  0  0  0  0  0  0  0  0  0  0  0
   -0.8543   15.0283   -2.1891 H   0  0  0  0  0  0  0  0  0  0  0  0
    0.5255   14.4344   -3.1741 H   0  0  0  0  0  0  0  0  0  0  0  0
   -1.0303   13.5366   -3.1741 H   0  0  0  0  0  0  0  0  0  0  0  0
    0.8113   13.4402    0.6310 H   0  0  0  0  0  0  0  0  0  0  0  0
   -1.3925   14.7156    0.2358 H   0  0  0  0  0  0  0  0  0  0  0  0
   -0.1328   15.3349    1.4269 H   0  0  0  0  0  0  0  0  0  0  0  0
   -1.2800   17.1466   -0.1024 H   0  0  0  0  0  0  0  0  0  0  0  0
    1.8451   15.8536   -2.3078 H   0  0  0  0  0  0  0  0  0  0  0  0
    3.1342   17.5072   -0.0491 H   0  0  0  0  0  0  0  0  0  0  0  0
    3.9966   16.6315   -1.3905 H   0  0  0  0  0  0  0  0  0  0  0  0
    3.8575   19.0678   -1.8009 H   0  0  0  0  0  0  0  0  0  0  0  0
    2.9764   18.0917   -3.0407 H   0  0  0  0  0  0  0  0  0  0  0  0
    1.6326   19.9920   -2.4572 H   0  0  0  0  0  0  0  0  0  0  0  0
    1.5630   20.6840   -0.4400 H   0  0  0  0  0  0  0  0  0  0  0  0
   -0.4629   17.1024   -3.4019 H   0  0  0  0  0  0  0  0  0  0  0  0
   -0.3135   18.8425   -3.8221 H   0  0  0  0  0  0  0  0  0  0  0  0
    1.1424   17.7903   -3.8221 H   0  0  0  0  0  0  0  0  0  0  0  0
   -0.8217   19.2255   -0.2871 H   0  0  0  0  0  0  0  0  0  0  0  0
   -0.6661   20.2192   -1.7754 H   0  0  0  0  0  0  0  0  0  0  0  0
   -1.7132   18.7597   -1.7754 H   0  0  0  0  0  0  0  0  0  0  0  0
    1.9615   14.8454    1.7530 H   0  0  0  0  0  0  0  0  0  0  0  0
    3.6161   14.6983    1.0695 H   0  0  0  0  0  0  0  0  0  0  0  0
    2.7825   16.2895    1.0695 H   0  0  0  0  0  0  0  0  0  0  0  0
    3.8204   14.5799   -1.6429 H   0  0  0  0  0  0  0  0  0  0  0  0
    3.4597   13.2823   -0.3704 H   0  0  0  0  0  0  0  0  0  0  0  0
    2.2058   13.5809   -3.1139 H   0  0  0  0  0  0  0  0  0  0  0  0
    3.2789   12.2618   -2.5007 H   0  0  0  0  0  0  0  0  0  0  0  0
    1.4876   11.8408    0.4432 H   0  0  0  0  0  0  0  0  0  0  0  0
    1.2523   10.3653   -0.5540 H   0  0  0  0  0  0  0  0  0  0  0  0
    2.8399   11.2056   -0.5540 H   0  0  0  0  0  0  0  0  0  0  0  0
  1  2  1  0
  2  3  1  0
  3  4  1  0
  4  5  1  0
  5  6  1  0
  6  7  1  0
  7  8  1  0
  7  9  1  0
  2 10  1  0
 10 11  1  0
 11 12  1  0
 12 13  1  0
 13 14  1  6
 13 15  1  0
 15 16  1  0
 16 17  1  0
 17 18  2  0
 18 19  1  0
 19 20  1  0
 20 21  1  0
 21 22  1  0
 22 23  1  0
 22 24  1  0
 24 25  1  0
 24 26  1  0
 19 27  1  0
 27 28  1  1
 27 29  1  0
 29 30  1  0
 30 31  1  0
 31 32  1  1
  7  5  1  0
 31 10  1  0
 31 13  1  0
 27 15  1  0
 24 18  1  0
  1 33  1  0
  1 34  1  0
  1 35  1  0
  2 36  1  6
  3 37  1  0
  3 38  1  0
  4 39  1  0
  4 40  1  0
  5 41  1  1
  8 42  1  0
  8 43  1  0
  8 44  1  0
  9 45  1  0
  9 46  1  0
  9 47  1  0
 10 48  1  6
 11 49  1  0
 11 50  1  0
 12 51  1  0
 12 52  1  0
 14 53  1  0
 14 54  1  0
 14 55  1  0
 15 56  1  1
 16 57  1  0
 16 58  1  0
 17 59  1  0
 19 60  1  6
 20 61  1  0
 20 62  1  0
 21 63  1  0
 21 64  1  0
 22 65  1  6
 23 66  1  0
 25 67  1  0
 25 68  1  0
 25 69  1  0
 26 70  1  0
 26 71  1  0
 26 72  1  0
 28 73  1  0
 28 74  1  0
 28 75  1  0
 29 76  1  0
 29 77  1  0
 30 78  1  0
 30 79  1  0
 32 80  1  0
 32 81  1  0
 32 82  1  0
M  END
>  <meeko>  (7) 
{"is_sidechain": [false], "intermolecular_energy": 2.731, "internal_energy": -0.839}

$$$$
EPH_relaxed_0001_pdb2pqr_Repair_106_r2_0001_out
     RDKit          3D

 82 86  0  0  0  0  0  0  0  0999 V2000
    1.5810   18.9630   -1.6300 C   0  0  0  0  0  0  0  0  0  0  0  0
    0.5830   18.7950   -0.4800 C   0  0  2  0  0  0  0  0  0  0  0  0
    1.0790   19.4610    0.8200 C   0  0  0  0  0  0  0  0  0  0  0  0
    2.4140   20.1930    0.6660 C   0  0  0  0  0  0  0  0  0  0  0  0
    3.3010   19.9840    1.8550 C   0  0  2  0  0  0  0  0  0  0  0  0
    4.7050   20.0890    1.5820 O   0  0  0  0  0  0  0  0  0  0  0  0
    4.2360   18.7980    2.0040 C   0  0  0  0  0  0  0  0  0  0  0  0
    4.3300   17.7420    0.9480 C   0  0  0  0  0  0  0  0  0  0  0  0
    4.6890   18.4120    3.3770 C   0  0  0  0  0  0  0  0  0  0  0  0
    0.3130   17.3150   -0.2370 C   0  0  1  0  0  0  0  0  0  0  0  0
   -1.1090   17.0510    0.3250 C   0  0  0  0  0  0  0  0  0  0  0  0
   -1.5840   15.7030   -0.2750 C   0  0  0  0  0  0  0  0  0  0  0  0
   -0.3100   15.0790   -0.8900 C   0  0  1  0  0  0  0  0  0  0  0  0
    0.4360   14.4230    0.3150 C   0  0  0  0  0  0  0  0  0  0  0  0
   -0.5320   14.0600   -2.0540 C   0  0  2  0  0  0  0  0  0  0  0  0
   -1.3180   12.7930   -1.6720 C   0  0  0  0  0  0  0  0  0  0  0  0
   -0.4880   11.6450   -1.2020 C   0  0  0  0  0  0  0  0  0  0  0  0
    0.8440   11.5270   -1.3570 C   0  0  0  0  0  0  0  0  0  0  0  0
    1.6390   12.5710   -2.1510 C   0  0  1  0  0  0  0  0  0  0  0  0
    2.6040   11.8520   -3.1300 C   0  0  0  0  0  0  0  0  0  0  0  0
    3.5060   10.8420   -2.4260 C   0  0  0  0  0  0  0  0  0  0  0  0
    2.6780    9.7880   -1.6960 C   0  0  2  0  0  0  0  0  0  0  0  0
    1.9820    8.9970   -2.6640 O   0  0  0  0  0  0  0  0  0  0  0  0
    1.6620   10.3950   -0.6890 C   0  0  0  0  0  0  0  0  0  0  0  0
    2.4220   10.9940    0.5200 C   0  0  0  0  0  0  0  0  0  0  0  0
    0.7960    9.2360   -0.1270 C   0  0  0  0  0  0  0  0  0  0  0  0
    0.7800   13.7030   -2.8630 C   0  0  1  0  0  0  0  0  0  0  0  0
    0.3180   13.2150   -4.2700 C   0  0  0  0  0  0  0  0  0  0  0  0
    1.6930   14.9630   -3.1080 C   0  0  0  0  0  0  0  0  0  0  0  0
    1.7770   15.9930   -1.9660 C   0  0  0  0  0  0  0  0  0  0  0  0
    0.3800   16.3700   -1.4630 C   0  0  2  0  0  0  0  0  0  0  0  0
   -0.3860   17.0520   -2.6470 C   0  0  0  0  0  0  0  0  0  0  0  0
    2.5876   19.1324   -1.2201 H   0  0  0  0  0  0  0  0  0  0  0  0
    1.5851   18.0529   -2.2478 H   0  0  0  0  0  0  0  0  0  0  0  0
    1.2869   19.8243   -2.2478 H   0  0  0  0  0  0  0  0  0  0  0  0
   -0.3495   19.2986   -0.7747 H   0  0  0  0  0  0  0  0  0  0  0  0
    0.3210   20.1869    1.1493 H   0  0  0  0  0  0  0  0  0  0  0  0
    1.2365   18.6564    1.5534 H   0  0  0  0  0  0  0  0  0  0  0  0
    2.9260   19.8156   -0.2314 H   0  0  0  0  0  0  0  0  0  0  0  0
    2.2065   21.2697    0.5781 H   0  0  0  0  0  0  0  0  0  0  0  0
    2.5422   20.4143    2.5252 H   0  0  0  0  0  0  0  0  0  0  0  0
    4.4179   16.7542    1.4240 H   0  0  0  0  0  0  0  0  0  0  0  0
    3.4260   17.7681    0.3218 H   0  0  0  0  0  0  0  0  0  0  0  0
    5.2152   17.9274    0.3218 H   0  0  0  0  0  0  0  0  0  0  0  0
    4.0757   18.9346    4.1259 H   0  0  0  0  0  0  0  0  0  0  0  0
    4.5796   17.3252    3.5072 H   0  0  0  0  0  0  0  0  0  0  0  0
    5.7446   18.6925    3.5072 H   0  0  0  0  0  0  0  0  0  0  0  0
    1.1351   17.0893    0.4581 H   0  0  0  0  0  0  0  0  0  0  0  0
   -1.0765   16.9866    1.4226 H   0  0  0  0  0  0  0  0  0  0  0  0
   -1.7970   17.8666    0.0576 H   0  0  0  0  0  0  0  0  0  0  0  0
   -1.9951   15.0518    0.5104 H   0  0  0  0  0  0  0  0  0  0  0  0
   -2.3838   15.8361   -1.0184 H   0  0  0  0  0  0  0  0  0  0  0  0
    0.0102   14.7974    1.2576 H   0  0  0  0  0  0  0  0  0  0  0  0
    0.3185   13.3303    0.2681 H   0  0  0  0  0  0  0  0  0  0  0  0
    1.5047   14.6792    0.2681 H   0  0  0  0  0  0  0  0  0  0  0  0
   -1.1852   14.6227   -2.7371 H   0  0  0  0  0  0  0  0  0  0  0  0
   -2.0189   13.0578   -0.8666 H   0  0  0  0  0  0  0  0  0  0  0  0
   -1.8135   12.4530   -2.5934 H   0  0  0  0  0  0  0  0  0  0  0  0
   -1.0090   10.8257   -0.6850 H   0  0  0  0  0  0  0  0  0  0  0  0
    2.2163   13.1420   -1.4089 H   0  0  0  0  0  0  0  0  0  0  0  0
    2.0078   11.3237   -3.8886 H   0  0  0  0  0  0  0  0  0  0  0  0
    3.2504   12.6174   -3.5843 H   0  0  0  0  0  0  0  0  0  0  0  0
    4.1428   10.3457   -3.1732 H   0  0  0  0  0  0  0  0  0  0  0  0
    4.1234   11.3763   -1.6889 H   0  0  0  0  0  0  0  0  0  0  0  0
    3.3737    9.1731   -1.1061 H   0  0  0  0  0  0  0  0  0  0  0  0
    2.5780    8.2800   -2.9420 H   0  0  0  0  0  0  0  0  0  0  0  0
    1.9660   10.6346    1.4543 H   0  0  0  0  0  0  0  0  0  0  0  0
    3.4759   10.6810    0.4822 H   0  0  0  0  0  0  0  0  0  0  0  0
    2.3639   12.0918    0.4822 H   0  0  0  0  0  0  0  0  0  0  0  0
    0.8162    9.2630    0.9725 H   0  0  0  0  0  0  0  0  0  0  0  0
   -0.2404    9.3494   -0.4776 H   0  0  0  0  0  0  0  0  0  0  0  0
    1.1985    8.2742   -0.4776 H   0  0  0  0  0  0  0  0  0  0  0  0
   -0.4340   12.4207   -4.1539 H   0  0  0  0  0  0  0  0  0  0  0  0
   -0.1212   14.0575   -4.8244 H   0  0  0  0  0  0  0  0  0  0  0  0
    1.1833   12.8226   -4.8244 H   0  0  0  0  0  0  0  0  0  0  0  0
    2.7129   14.6014   -3.3056 H   0  0  0  0  0  0  0  0  0  0  0  0
    1.2236   15.4998   -3.9455 H   0  0  0  0  0  0  0  0  0  0  0  0
    2.3545   15.5622   -1.1348 H   0  0  0  0  0  0  0  0  0  0  0  0
    2.2687   16.9000   -2.3475 H   0  0  0  0  0  0  0  0  0  0  0  0
   -1.1508   17.7329   -2.2451 H   0  0  0  0  0  0  0  0  0  0  0  0
    0.3247   17.6218   -3.2637 H   0  0  0  0  0  0  0  0  0  0  0  0
   -0.8698   16.2802   -3.2637 H   0  0  0  0  0  0  0  0  0  0  0  0
  1  2  1  0
  2  3  1  0
  3  4  1  0
  4  5  1  0
  5  6  1  0
  6  7  1  0
  7  8  1  0
  7  9  1  0
  2 10  1  0
 10 11  1  0
 11 12  1  0
 12 13  1  0
 13 14  1  1
 13 15  1  0
 15 16  1  0
 16 17  1  0
 17 18  2  0
 18 19  1  0
 19 20  1  0
 20 21  1  0
 21 22  1  0
 22 23  1  0
 22 24  1  0
 24 25  1  0
 24 26  1  0
 19 27  1  0
 27 28  1  6
 27 29  1  0
 29 30  1  0
 30 31  1  0
 31 32  1  6
  7  5  1  0
 31 10  1  0
 31 13  1  0
 27 15  1  0
 24 18  1  0
  1 33  1  0
  1 34  1  0
  1 35  1  0
  2 36  1  6
  3 37  1  0
  3 38  1  0
  4 39  1  0
  4 40  1  0
  5 41  1  1
  8 42  1  0
  8 43  1  0
  8 44  1  0
  9 45  1  0
  9 46  1  0
  9 47  1  0
 10 48  1  1
 11 49  1  0
 11 50  1  0
 12 51  1  0
 12 52  1  0
 14 53  1  0
 14 54  1  0
 14 55  1  0
 15 56  1  6
 16 57  1  0
 16 58  1  0
 17 59  1  0
 19 60  1  1
 20 61  1  0
 20 62  1  0
 21 63  1  0
 21 64  1  0
 22 65  1  1
 23 66  1  0
 25 67  1  0
 25 68  1  0
 25 69  1  0
 26 70  1  0
 26 71  1  0
 26 72  1  0
 28 73  1  0
 28 74  1  0
 28 75  1  0
 29 76  1  0
 29 77  1  0
 30 78  1  0
 30 79  1  0
 32 80  1  0
 32 81  1  0
 32 82  1  0
M  END
>  <meeko>  (8) 
{"is_sidechain": [false], "intermolecular_energy": 2.731, "internal_energy": -0.839}

$$$$
EPH_relaxed_0001_pdb2pqr_Repair_106_r2_0001_out
     RDKit          3D

 82 86  0  0  0  0  0  0  0  0999 V2000
   -1.8240   14.8190    0.2790 C   0  0  0  0  0  0  0  0  0  0  0  0
   -0.4830   15.5450    0.1410 C   0  0  2  0  0  0  0  0  0  0  0  0
   -0.4960   16.5730   -1.0080 C   0  0  0  0  0  0  0  0  0  0  0  0
   -0.0800   17.9830   -0.5770 C   0  0  0  0  0  0  0  0  0  0  0  0
    1.3350   18.0180   -0.0850 C   0  0  2  0  0  0  0  0  0  0  0  0
    2.0390   19.2330   -0.3720 O   0  0  0  0  0  0  0  0  0  0  0  0
    2.5400   18.0450   -1.0060 C   0  0  0  0  0  0  0  0  0  0  0  0
    2.3860   18.0380   -2.4950 C   0  0  0  0  0  0  0  0  0  0  0  0
    3.8610   17.5880   -0.4700 C   0  0  0  0  0  0  0  0  0  0  0  0
    0.6350   14.5330   -0.0780 C   0  0  1  0  0  0  0  0  0  0  0  0
    0.7670   13.5260    1.0950 C   0  0  0  0  0  0  0  0  0  0  0  0
    1.1860   12.1690    0.4750 C   0  0  0  0  0  0  0  0  0  0  0  0
    1.6020   12.5140   -0.9740 C   0  0  1  0  0  0  0  0  0  0  0  0
    3.0620   13.0530   -0.8560 C   0  0  0  0  0  0  0  0  0  0  0  0
    1.4980   11.3540   -2.0180 C   0  0  2  0  0  0  0  0  0  0  0  0
    2.4050   10.1430   -1.7390 C   0  0  0  0  0  0  0  0  0  0  0  0
    3.7600   10.2040   -2.3620 C   0  0  0  0  0  0  0  0  0  0  0  0
    4.1330   11.0480   -3.3420 C   0  0  0  0  0  0  0  0  0  0  0  0
    3.1190   11.9970   -3.9930 C   0  0  1  0  0  0  0  0  0  0  0  0
    3.2740   11.9410   -5.5350 C   0  0  0  0  0  0  0  0  0  0  0  0
    4.7040   12.2150   -5.9900 C   0  0  0  0  0  0  0  0  0  0  0  0
    5.6750   11.2160   -5.3670 C   0  0  2  0  0  0  0  0  0  0  0  0
    5.3990    9.9150   -5.8950 O   0  0  0  0  0  0  0  0  0  0  0  0
    5.6020   11.1760   -3.8150 C   0  0  0  0  0  0  0  0  0  0  0  0
    6.1880   12.4860   -3.2330 C   0  0  0  0  0  0  0  0  0  0  0  0
    6.5270   10.0300   -3.3230 C   0  0  0  0  0  0  0  0  0  0  0  0
    1.6100   11.8260   -3.5240 C   0  0  1  0  0  0  0  0  0  0  0  0
    0.9060   10.7330   -4.3860 C   0  0  0  0  0  0  0  0  0  0  0  0
    0.8330   13.1690   -3.7900 C   0  0  0  0  0  0  0  0  0  0  0  0
    0.8740   14.2280   -2.6720 C   0  0  0  0  0  0  0  0  0  0  0  0
    0.5250   13.6080   -1.3160 C   0  0  2  0  0  0  0  0  0  0  0  0
   -0.9460   13.0760   -1.3980 C   0  0  0  0  0  0  0  0  0  0  0  0
   -2.0629   14.6896    1.3449 H   0  0  0  0  0  0  0  0  0  0  0  0
   -2.6138   15.4127   -0.2044 H   0  0  0  0  0  0  0  0  0  0  0  0
   -1.7586   13.8331   -0.2044 H   0  0  0  0  0  0  0  0  0  0  0  0
   -0.3068   16.0969    1.0760 H   0  0  0  0  0  0  0  0  0  0  0  0
    0.1981   16.2296   -1.7892 H   0  0  0  0  0  0  0  0  0  0  0  0
   -1.5332   16.6397   -1.3682 H   0  0  0  0  0  0  0  0  0  0  0  0
   -0.1749   18.6613   -1.4378 H   0  0  0  0  0  0  0  0  0  0  0  0
   -0.7372   18.2972    0.2472 H   0  0  0  0  0  0  0  0  0  0  0  0
    1.0769   17.3811    0.7739 H   0  0  0  0  0  0  0  0  0  0  0  0
    1.3178   17.9894   -2.7529 H   0  0  0  0  0  0  0  0  0  0  0  0
    2.8228   18.9569   -2.9131 H   0  0  0  0  0  0  0  0  0  0  0  0
    2.9043   17.1625   -2.9131 H   0  0  0  0  0  0  0  0  0  0  0  0
    3.8336   17.5975    0.6296 H   0  0  0  0  0  0  0  0  0  0  0  0
    4.0664   16.5666   -0.8229 H   0  0  0  0  0  0  0  0  0  0  0  0
    4.6536   18.2642   -0.8229 H   0  0  0  0  0  0  0  0  0  0  0  0
    1.4853   15.2206   -0.1969 H   0  0  0  0  0  0  0  0  0  0  0  0
    1.5330   13.8704    1.8054 H   0  0  0  0  0  0  0  0  0  0  0  0
   -0.1816   13.4330    1.6440 H   0  0  0  0  0  0  0  0  0  0  0  0
    2.0311   11.7336    1.0284 H   0  0  0  0  0  0  0  0  0  0  0  0
    0.3756   11.4261    0.5107 H   0  0  0  0  0  0  0  0  0  0  0  0
    3.3314   13.1525    0.2058 H   0  0  0  0  0  0  0  0  0  0  0  0
    3.7528   12.3506   -1.3453 H   0  0  0  0  0  0  0  0  0  0  0  0
    3.1307   14.0358   -1.3453 H   0  0  0  0  0  0  0  0  0  0  0  0
    0.4683   10.9958   -1.8721 H   0  0  0  0  0  0  0  0  0  0  0  0
    2.5351   10.0596   -0.6499 H   0  0  0  0  0  0  0  0  0  0  0  0
    1.9015    9.2754   -2.1904 H   0  0  0  0  0  0  0  0  0  0  0  0
    4.5179    9.4996   -1.9887 H   0  0  0  0  0  0  0  0  0  0  0  0
    3.3680   13.0050   -3.6297 H   0  0  0  0  0  0  0  0  0  0  0  0
    2.9791   10.9400   -5.8828 H   0  0  0  0  0  0  0  0  0  0  0  0
    2.6316   12.7243   -5.9636 H   0  0  0  0  0  0  0  0  0  0  0  0
    4.7554   12.1318   -7.0856 H   0  0  0  0  0  0  0  0  0  0  0  0
    4.9872   13.2279   -5.6677 H   0  0  0  0  0  0  0  0  0  0  0  0
    6.6936   11.5419   -5.6243 H   0  0  0  0  0  0  0  0  0  0  0  0
    5.4840    9.2770   -5.1660 H   0  0  0  0  0  0  0  0  0  0  0  0
    6.1676   12.4404   -2.1341 H   0  0  0  0  0  0  0  0  0  0  0  0
    7.2262   12.6073   -3.5757 H   0  0  0  0  0  0  0  0  0  0  0  0
    5.5865   13.3408   -3.5757 H   0  0  0  0  0  0  0  0  0  0  0  0
    6.5390   10.0151   -2.2232 H   0  0  0  0  0  0  0  0  0  0  0  0
    6.1497    9.0674   -3.6986 H   0  0  0  0  0  0  0  0  0  0  0  0
    7.5475   10.1956   -3.6986 H   0  0  0  0  0  0  0  0  0  0  0  0
    0.4302    9.9943   -3.7243 H   0  0  0  0  0  0  0  0  0  0  0  0
    0.1406   11.2033   -5.0208 H   0  0  0  0  0  0  0  0  0  0  0  0
    1.6508   10.2306   -5.0208 H   0  0  0  0  0  0  0  0  0  0  0  0
    1.2576   13.6253   -4.6964 H   0  0  0  0  0  0  0  0  0  0  0  0
   -0.2247   12.8783   -3.8726 H   0  0  0  0  0  0  0  0  0  0  0  0
    1.8850   14.6585   -2.6212 H   0  0  0  0  0  0  0  0  0  0  0  0
    0.1338   15.0087   -2.9014 H   0  0  0  0  0  0  0  0  0  0  0  0
   -1.3414   12.9330   -0.3815 H   0  0  0  0  0  0  0  0  0  0  0  0
   -1.5703   13.8053   -1.9350 H   0  0  0  0  0  0  0  0  0  0  0  0
   -0.9594   12.1161   -1.9350 H   0  0  0  0  0  0  0  0  0  0  0  0
  1  2  1  0
  2  3  1  0
  3  4  1  0
  4  5  1  0
  5  6  1  0
  6  7  1  0
  7  8  1  0
  7  9  1  0
  2 10  1  0
 10 11  1  0
 11 12  1  0
 12 13  1  0
 13 14  1  1
 13 15  1  0
 15 16  1  0
 16 17  1  0
 17 18  2  0
 18 19  1  0
 19 20  1  0
 20 21  1  0
 21 22  1  0
 22 23  1  0
 22 24  1  0
 24 25  1  0
 24 26  1  0
 19 27  1  0
 27 28  1  6
 27 29  1  0
 29 30  1  0
 30 31  1  0
 31 32  1  6
  7  5  1  0
 31 10  1  0
 31 13  1  0
 27 15  1  0
 24 18  1  0
  1 33  1  0
  1 34  1  0
  1 35  1  0
  2 36  1  1
  3 37  1  0
  3 38  1  0
  4 39  1  0
  4 40  1  0
  5 41  1  1
  8 42  1  0
  8 43  1  0
  8 44  1  0
  9 45  1  0
  9 46  1  0
  9 47  1  0
 10 48  1  6
 11 49  1  0
 11 50  1  0
 12 51  1  0
 12 52  1  0
 14 53  1  0
 14 54  1  0
 14 55  1  0
 15 56  1  6
 16 57  1  0
 16 58  1  0
 17 59  1  0
 19 60  1  1
 20 61  1  0
 20 62  1  0
 21 63  1  0
 21 64  1  0
 22 65  1  1
 23 66  1  0
 25 67  1  0
 25 68  1  0
 25 69  1  0
 26 70  1  0
 26 71  1  0
 26 72  1  0
 28 73  1  0
 28 74  1  0
 28 75  1  0
 29 76  1  0
 29 77  1  0
 30 78  1  0
 30 79  1  0
 32 80  1  0
 32 81  1  0
 32 82  1  0
M  END
>  <meeko>  (9) 
{"is_sidechain": [false], "intermolecular_energy": 2.731, "internal_energy": -0.839}

$$$$
EPH_relaxed_0001_pdb2pqr_Repair_106_r2_0001_out
     RDKit          3D

 82 86  0  0  0  0  0  0  0  0999 V2000
    0.2170    9.3450   -2.3270 C   0  0  0  0  0  0  0  0  0  0  0  0
    1.2800   10.3610   -2.7530 C   0  0  2  0  0  0  0  0  0  0  0  0
    2.6920    9.7430   -2.7910 C   0  0  0  0  0  0  0  0  0  0  0  0
    3.6140   10.3750   -3.8380 C   0  0  0  0  0  0  0  0  0  0  0  0
    5.0060   10.5580   -3.3130 C   0  0  2  0  0  0  0  0  0  0  0  0
    5.5740   11.8500   -3.5640 O   0  0  0  0  0  0  0  0  0  0  0  0
    6.2190   10.7380   -4.2060 C   0  0  0  0  0  0  0  0  0  0  0  0
    6.0970   10.7420   -5.6970 C   0  0  0  0  0  0  0  0  0  0  0  0
    7.5710   10.4210   -3.6470 C   0  0  0  0  0  0  0  0  0  0  0  0
    1.2610   11.5600   -1.8120 C   0  0  1  0  0  0  0  0  0  0  0  0
    2.3140   11.4450   -0.6780 C   0  0  0  0  0  0  0  0  0  0  0  0
    2.8250   12.8820   -0.3950 C   0  0  0  0  0  0  0  0  0  0  0  0
    1.8240   13.8030   -1.1300 C   0  0  1  0  0  0  0  0  0  0  0  0
    0.5990   13.9140   -0.1680 C   0  0  0  0  0  0  0  0  0  0  0  0
    2.3590   15.2120   -1.5470 C   0  0  2  0  0  0  0  0  0  0  0  0
    2.7840   16.1200   -0.3800 C   0  0  0  0  0  0  0  0  0  0  0  0
    1.7090   17.0010    0.1660 C   0  0  0  0  0  0  0  0  0  0  0  0
    0.5370   17.2710   -0.4380 C   0  0  0  0  0  0  0  0  0  0  0  0
    0.2370   16.7440   -1.8480 C   0  0  1  0  0  0  0  0  0  0  0  0
   -0.3510   17.8880   -2.7140 C   0  0  0  0  0  0  0  0  0  0  0  0
   -1.5650   18.5470   -2.0680 C   0  0  0  0  0  0  0  0  0  0  0  0
   -1.2130   19.1100   -0.6930 C   0  0  2  0  0  0  0  0  0  0  0  0
   -0.2930   20.1940   -0.8610 O   0  0  0  0  0  0  0  0  0  0  0  0
   -0.6020   18.0500    0.2650 C   0  0  0  0  0  0  0  0  0  0  0  0
   -1.6960   17.0370    0.6860 C   0  0  0  0  0  0  0  0  0  0  0  0
   -0.1620   18.7770    1.5640 C   0  0  0  0  0  0  0  0  0  0  0  0
    1.4300   15.9820   -2.5700 C   0  0  1  0  0  0  0  0  0  0  0  0
    2.3410   17.0040   -3.3160 C   0  0  0  0  0  0  0  0  0  0  0  0
    0.8370   15.0280   -3.6740 C   0  0  0  0  0  0  0  0  0  0  0  0
    0.4370   13.6100   -3.2250 C   0  0  0  0  0  0  0  0  0  0  0  0
    1.5650   12.9500   -2.4250 C   0  0  2  0  0  0  0  0  0  0  0  0
    2.8030   12.8050   -3.3730 C   0  0  0  0  0  0  0  0  0  0  0  0
    0.1710    9.3011   -1.2288 H   0  0  0  0  0  0  0  0  0  0  0  0
   -0.7625    9.6512   -2.7230 H   0  0  0  0  0  0  0  0  0  0  0  0
    0.4787    8.3527   -2.7230 H   0  0  0  0  0  0  0  0  0  0  0  0
    1.0349   10.6870   -3.7746 H   0  0  0  0  0  0  0  0  0  0  0  0
    3.1532    9.8701   -1.8005 H   0  0  0  0  0  0  0  0  0  0  0  0
    2.5719    8.6848   -3.0661 H   0  0  0  0  0  0  0  0  0  0  0  0
    3.6496    9.7218   -4.7224 H   0  0  0  0  0  0  0  0  0  0  0  0
    3.2117   11.3659   -4.0956 H   0  0  0  0  0  0  0  0  0  0  0  0
    4.8041    9.8795   -2.4711 H   0  0  0  0  0  0  0  0  0  0  0  0
    5.0340   10.7768   -5.9778 H   0  0  0  0  0  0  0  0  0  0  0  0
    6.6131   11.6237   -6.1048 H   0  0  0  0  0  0  0  0  0  0  0  0
    6.5542    9.8284   -6.1048 H   0  0  0  0  0  0  0  0  0  0  0  0
    7.5251   10.4318   -2.5480 H   0  0  0  0  0  0  0  0  0  0  0  0
    7.8857    9.4247   -3.9911 H   0  0  0  0  0  0  0  0  0  0  0  0
    8.2957   11.1736   -3.9911 H   0  0  0  0  0  0  0  0  0  0  0  0
    0.2136   11.5169   -1.4788 H   0  0  0  0  0  0  0  0  0  0  0  0
    1.8522   11.0221    0.2264 H   0  0  0  0  0  0  0  0  0  0  0  0
    3.1411   10.7823   -0.9725 H   0  0  0  0  0  0  0  0  0  0  0  0
    2.8226   13.0894    0.6853 H   0  0  0  0  0  0  0  0  0  0  0  0
    3.8594   13.0322   -0.7376 H   0  0  0  0  0  0  0  0  0  0  0  0
    0.9477   13.8824    0.8748 H   0  0  0  0  0  0  0  0  0  0  0  0
    0.0743   14.8634   -0.3506 H   0  0  0  0  0  0  0  0  0  0  0  0
   -0.0878   13.0744   -0.3506 H   0  0  0  0  0  0  0  0  0  0  0  0
    3.2859   14.9624   -2.0842 H   0  0  0  0  0  0  0  0  0  0  0  0
    3.1447   15.4775    0.4368 H   0  0  0  0  0  0  0  0  0  0  0  0
    3.5545   16.7937   -0.7831 H   0  0  0  0  0  0  0  0  0  0  0  0
    1.8904   17.4690    1.1448 H   0  0  0  0  0  0  0  0  0  0  0  0
   -0.5126   15.9487   -1.7235 H   0  0  0  0  0  0  0  0  0  0  0  0
    0.4264   18.6517   -2.8641 H   0  0  0  0  0  0  0  0  0  0  0  0
   -0.6780   17.4495   -3.6683 H   0  0  0  0  0  0  0  0  0  0  0  0
   -1.9161   19.3658   -2.7132 H   0  0  0  0  0  0  0  0  0  0  0  0
   -2.3526   17.7889   -1.9459 H   0  0  0  0  0  0  0  0  0  0  0  0
   -2.1489   19.4513   -0.2266 H   0  0  0  0  0  0  0  0  0  0  0  0
   -0.4140   20.5460   -1.7590 H   0  0  0  0  0  0  0  0  0  0  0  0
   -1.7481   16.9887    1.7837 H   0  0  0  0  0  0  0  0  0  0  0  0
   -2.6685   17.3605    0.2866 H   0  0  0  0  0  0  0  0  0  0  0  0
   -1.4481   16.0425    0.2866 H   0  0  0  0  0  0  0  0  0  0  0  0
   -0.5074   18.2062    2.4386 H   0  0  0  0  0  0  0  0  0  0  0  0
    0.9350   18.8549    1.5870 H   0  0  0  0  0  0  0  0  0  0  0  0
   -0.6018   19.7850    1.5870 H   0  0  0  0  0  0  0  0  0  0  0  0
    2.8854   17.6148   -2.5808 H   0  0  0  0  0  0  0  0  0  0  0  0
    3.0606   16.4615   -3.9468 H   0  0  0  0  0  0  0  0  0  0  0  0
    1.7197   17.6568   -3.9468 H   0  0  0  0  0  0  0  0  0  0  0  0
   -0.0609   15.5125   -4.0850 H   0  0  0  0  0  0  0  0  0  0  0  0
    1.6535   14.8814   -4.3963 H   0  0  0  0  0  0  0  0  0  0  0  0
   -0.4624   13.6723   -2.5948 H   0  0  0  0  0  0  0  0  0  0  0  0
    0.2386   13.0015   -4.1196 H   0  0  0  0  0  0  0  0  0  0  0  0
    3.7164   12.6980   -2.7695 H   0  0  0  0  0  0  0  0  0  0  0  0
    2.6766   11.9155   -4.0077 H   0  0  0  0  0  0  0  0  0  0  0  0
    2.8856   13.6996   -4.0077 H   0  0  0  0  0  0  0  0  0  0  0  0
  1  2  1  0
  2  3  1  0
  3  4  1  0
  4  5  1  0
  5  6  1  0
  6  7  1  0
  7  8  1  0
  7  9  1  0
  2 10  1  0
 10 11  1  0
 11 12  1  0
 12 13  1  0
 13 14  1  1
 13 15  1  0
 15 16  1  0
 16 17  1  0
 17 18  2  0
 18 19  1  0
 19 20  1  0
 20 21  1  0
 21 22  1  0
 22 23  1  0
 22 24  1  0
 24 25  1  0
 24 26  1  0
 19 27  1  0
 27 28  1  6
 27 29  1  0
 29 30  1  0
 30 31  1  0
 31 32  1  6
  7  5  1  0
 31 10  1  0
 31 13  1  0
 27 15  1  0
 24 18  1  0
  1 33  1  0
  1 34  1  0
  1 35  1  0
  2 36  1  6
  3 37  1  0
  3 38  1  0
  4 39  1  0
  4 40  1  0
  5 41  1  1
  8 42  1  0
  8 43  1  0
  8 44  1  0
  9 45  1  0
  9 46  1  0
  9 47  1  0
 10 48  1  1
 11 49  1  0
 11 50  1  0
 12 51  1  0
 12 52  1  0
 14 53  1  0
 14 54  1  0
 14 55  1  0
 15 56  1  6
 16 57  1  0
 16 58  1  0
 17 59  1  0
 19 60  1  1
 20 61  1  0
 20 62  1  0
 21 63  1  0
 21 64  1  0
 22 65  1  1
 23 66  1  0
 25 67  1  0
 25 68  1  0
 25 69  1  0
 26 70  1  0
 26 71  1  0
 26 72  1  0
 28 73  1  0
 28 74  1  0
 28 75  1  0
 29 76  1  0
 29 77  1  0
 30 78  1  0
 30 79  1  0
 32 80  1  0
 32 81  1  0
 32 82  1  0
M  END
>  <meeko>  (10) 
{"is_sidechain": [false], "intermolecular_energy": 2.731, "internal_energy": -0.839}

$$$$
EPH_relaxed_0001_pdb2pqr_Repair_106_r2_0001_out
     RDKit          3D

 82 86  0  0  0  0  0  0  0  0999 V2000
  -14.8700    8.9290    1.0640 C   0  0  0  0  0  0  0  0  0  0  0  0
  -14.1300    9.0940   -0.2660 C   0  0  2  0  0  0  0  0  0  0  0  0
  -14.6220    8.0940   -1.3320 C   0  0  0  0  0  0  0  0  0  0  0  0
  -14.6700    8.6780   -2.7470 C   0  0  0  0  0  0  0  0  0  0  0  0
  -15.2870   10.0430   -2.7630 C   0  0  2  0  0  0  0  0  0  0  0  0
  -15.0690   10.7850   -3.9700 O   0  0  0  0  0  0  0  0  0  0  0  0
  -14.4780   11.3270   -2.7770 C   0  0  0  0  0  0  0  0  0  0  0  0
  -12.9820   11.3060   -2.7750 C   0  0  0  0  0  0  0  0  0  0  0  0
  -15.1290   12.5880   -2.3010 C   0  0  0  0  0  0  0  0  0  0  0  0
  -12.6300    8.9290   -0.0500 C   0  0  1  0  0  0  0  0  0  0  0  0
  -12.2640    8.6890    1.4390 C   0  0  0  0  0  0  0  0  0  0  0  0
  -11.0530    7.7210    1.4510 C   0  0  0  0  0  0  0  0  0  0  0  0
  -10.5570    7.6990   -0.0130 C   0  0  1  0  0  0  0  0  0  0  0  0
   -9.6860    8.9860   -0.1610 C   0  0  0  0  0  0  0  0  0  0  0  0
   -9.7760    6.4200   -0.4590 C   0  0  2  0  0  0  0  0  0  0  0  0
   -8.4590    6.1630    0.2950 C   0  0  0  0  0  0  0  0  0  0  0  0
   -7.2440    6.7770   -0.3170 C   0  0  0  0  0  0  0  0  0  0  0  0
   -7.1580    7.2620   -1.5690 C   0  0  0  0  0  0  0  0  0  0  0  0
   -8.3340    7.1310   -2.5460 C   0  0  1  0  0  0  0  0  0  0  0  0
   -7.8130    6.6320   -3.9190 C   0  0  0  0  0  0  0  0  0  0  0  0
   -6.6890    7.5040   -4.4710 C   0  0  0  0  0  0  0  0  0  0  0  0
   -5.5150    7.5620   -3.4980 C   0  0  2  0  0  0  0  0  0  0  0  0
   -4.9210    6.2630   -3.4140 O   0  0  0  0  0  0  0  0  0  0  0  0
   -5.9210    8.0430   -2.0760 C   0  0  0  0  0  0  0  0  0  0  0  0
   -6.2810    9.5490   -2.1200 C   0  0  0  0  0  0  0  0  0  0  0  0
   -4.6760    7.9210   -1.1570 C   0  0  0  0  0  0  0  0  0  0  0  0
   -9.5790    6.2930   -2.0240 C   0  0  1  0  0  0  0  0  0  0  0  0
   -9.3650    4.7780   -2.3250 C   0  0  0  0  0  0  0  0  0  0  0  0
  -10.8630    6.7270   -2.8260 C   0  0  0  0  0  0  0  0  0  0  0  0
  -11.6590    7.9230   -2.2680 C   0  0  0  0  0  0  0  0  0  0  0  0
  -11.9330    7.7490   -0.7710 C   0  0  2  0  0  0  0  0  0  0  0  0
  -12.8260    6.4730   -0.5940 C   0  0  0  0  0  0  0  0  0  0  0  0
  -14.1678    9.0856    1.8961 H   0  0  0  0  0  0  0  0  0  0  0  0
  -15.6824    9.6681    1.1257 H   0  0  0  0  0  0  0  0  0  0  0  0
  -15.2915    7.9148    1.1257 H   0  0  0  0  0  0  0  0  0  0  0  0
  -14.3427   10.1064   -0.6399 H   0  0  0  0  0  0  0  0  0  0  0  0
  -13.9431    7.2285   -1.3362 H   0  0  0  0  0  0  0  0  0  0  0  0
  -15.6521    7.8174   -1.0628 H   0  0  0  0  0  0  0  0  0  0  0  0
  -13.6447    8.7458   -3.1395 H   0  0  0  0  0  0  0  0  0  0  0  0
  -15.2881    8.0152   -3.3705 H   0  0  0  0  0  0  0  0  0  0  0  0
  -16.1168    9.7007   -2.1272 H   0  0  0  0  0  0  0  0  0  0  0  0
  -12.6168   11.3009   -1.7374 H   0  0  0  0  0  0  0  0  0  0  0  0
  -12.6273   10.4028   -3.2931 H   0  0  0  0  0  0  0  0  0  0  0  0
  -12.6021   12.1989   -3.2931 H   0  0  0  0  0  0  0  0  0  0  0  0
  -15.1372   12.6038   -1.2011 H   0  0  0  0  0  0  0  0  0  0  0  0
  -14.5660   13.4554   -2.6760 H   0  0  0  0  0  0  0  0  0  0  0  0
  -16.1622   12.6314   -2.6760 H   0  0  0  0  0  0  0  0  0  0  0  0
  -12.2778    9.8844   -0.4661 H   0  0  0  0  0  0  0  0  0  0  0  0
  -11.9935    9.6402    1.9207 H   0  0  0  0  0  0  0  0  0  0  0  0
  -13.1150    8.2641    1.9916 H   0  0  0  0  0  0  0  0  0  0  0  0
  -10.2651    8.0930    2.1224 H   0  0  0  0  0  0  0  0  0  0  0  0
  -11.3236    6.7188    1.8149 H   0  0  0  0  0  0  0  0  0  0  0  0
   -9.4263    9.3697    0.8367 H   0  0  0  0  0  0  0  0  0  0  0  0
   -8.7652    8.7442   -0.7120 H   0  0  0  0  0  0  0  0  0  0  0  0
  -10.2528    9.7510   -0.7120 H   0  0  0  0  0  0  0  0  0  0  0  0
  -10.4571    5.6112   -0.1560 H   0  0  0  0  0  0  0  0  0  0  0  0
   -8.5665    6.5644    1.3135 H   0  0  0  0  0  0  0  0  0  0  0  0
   -8.2983    5.0752    0.2650 H   0  0  0  0  0  0  0  0  0  0  0  0
   -6.3417    6.8382    0.3092 H   0  0  0  0  0  0  0  0  0  0  0  0
   -8.7557    8.1414   -2.6518 H   0  0  0  0  0  0  0  0  0  0  0  0
   -7.4370    5.6050   -3.8013 H   0  0  0  0  0  0  0  0  0  0  0  0
   -8.6508    6.6777   -4.6304 H   0  0  0  0  0  0  0  0  0  0  0  0
   -6.3437    7.0835   -5.4270 H   0  0  0  0  0  0  0  0  0  0  0  0
   -7.0751    8.5237   -4.6161 H   0  0  0  0  0  0  0  0  0  0  0  0
   -4.8001    8.3016   -3.8878 H   0  0  0  0  0  0  0  0  0  0  0  0
   -5.5000    5.7090   -2.8650 H   0  0  0  0  0  0  0  0  0  0  0  0
   -6.3731    9.9341   -1.0937 H   0  0  0  0  0  0  0  0  0  0  0  0
   -5.4893   10.1000   -2.6488 H   0  0  0  0  0  0  0  0  0  0  0  0
   -7.2363    9.6823   -2.6488 H   0  0  0  0  0  0  0  0  0  0  0  0
   -4.9930    7.9521   -0.1041 H   0  0  0  0  0  0  0  0  0  0  0  0
   -4.1640    6.9684   -1.3578 H   0  0  0  0  0  0  0  0  0  0  0  0
   -3.9888    8.7561   -1.3578 H   0  0  0  0  0  0  0  0  0  0  0  0
   -9.2867    4.2236   -1.3782 H   0  0  0  0  0  0  0  0  0  0  0  0
  -10.2180    4.3953   -2.9046 H   0  0  0  0  0  0  0  0  0  0  0  0
   -8.4394    4.6465   -2.9046 H   0  0  0  0  0  0  0  0  0  0  0  0
  -10.5461    6.9854   -3.8472 H   0  0  0  0  0  0  0  0  0  0  0  0
  -11.5480    5.8689   -2.7594 H   0  0  0  0  0  0  0  0  0  0  0  0
  -11.0792    8.8448   -2.4229 H   0  0  0  0  0  0  0  0  0  0  0  0
  -12.6221    7.9804   -2.7964 H   0  0  0  0  0  0  0  0  0  0  0  0
  -12.9677    6.2705    0.4779 H   0  0  0  0  0  0  0  0  0  0  0  0
  -13.8043    6.6415   -1.0678 H   0  0  0  0  0  0  0  0  0  0  0  0
  -12.3326    5.6116   -1.0678 H   0  0  0  0  0  0  0  0  0  0  0  0
  1  2  1  0
  2  3  1  0
  3  4  1  0
  4  5  1  0
  5  6  1  0
  6  7  1  0
  7  8  1  0
  7  9  1  0
  2 10  1  0
 10 11  1  0
 11 12  1  0
 12 13  1  0
 13 14  1  6
 13 15  1  0
 15 16  1  0
 16 17  1  0
 17 18  2  0
 18 19  1  0
 19 20  1  0
 20 21  1  0
 21 22  1  0
 22 23  1  0
 22 24  1  0
 24 25  1  0
 24 26  1  0
 19 27  1  0
 27 28  1  1
 27 29  1  0
 29 30  1  0
 30 31  1  0
 31 32  1  6
  7  5  1  0
 31 10  1  0
 31 13  1  0
 27 15  1  0
 24 18  1  0
  1 33  1  0
  1 34  1  0
  1 35  1  0
  2 36  1  6
  3 37  1  0
  3 38  1  0
  4 39  1  0
  4 40  1  0
  5 41  1  1
  8 42  1  0
  8 43  1  0
  8 44  1  0
  9 45  1  0
  9 46  1  0
  9 47  1  0
 10 48  1  6
 11 49  1  0
 11 50  1  0
 12 51  1  0
 12 52  1  0
 14 53  1  0
 14 54  1  0
 14 55  1  0
 15 56  1  1
 16 57  1  0
 16 58  1  0
 17 59  1  0
 19 60  1  6
 20 61  1  0
 20 62  1  0
 21 63  1  0
 21 64  1  0
 22 65  1  6
 23 66  1  0
 25 67  1  0
 25 68  1  0
 25 69  1  0
 26 70  1  0
 26 71  1  0
 26 72  1  0
 28 73  1  0
 28 74  1  0
 28 75  1  0
 29 76  1  0
 29 77  1  0
 30 78  1  0
 30 79  1  0
 32 80  1  0
 32 81  1  0
 32 82  1  0
M  END
>  <meeko>  (11) 
{"is_sidechain": [false], "intermolecular_energy": 2.731, "internal_energy": -0.839}

$$$$
EPH_relaxed_0001_pdb2pqr_Repair_106_r2_0001_out
     RDKit          3D

 82 86  0  0  0  0  0  0  0  0999 V2000
   -3.3660    7.7690   -0.8100 C   0  0  0  0  0  0  0  0  0  0  0  0
   -3.6120    9.2240   -0.4000 C   0  0  2  0  0  0  0  0  0  0  0  0
   -5.0910    9.6290   -0.5580 C   0  0  0  0  0  0  0  0  0  0  0  0
   -5.7260    9.1460   -1.8640 C   0  0  0  0  0  0  0  0  0  0  0  0
   -6.8120    8.1430   -1.6150 C   0  0  2  0  0  0  0  0  0  0  0  0
   -6.8280    7.0390   -2.5300 O   0  0  0  0  0  0  0  0  0  0  0  0
   -7.9700    7.9100   -2.5680 C   0  0  0  0  0  0  0  0  0  0  0  0
   -8.1020    8.6860   -3.8410 C   0  0  0  0  0  0  0  0  0  0  0  0
   -9.2210    7.2860   -2.0330 C   0  0  0  0  0  0  0  0  0  0  0  0
   -2.7270   10.1520   -1.2240 C   0  0  1  0  0  0  0  0  0  0  0  0
   -3.2730   11.6040   -1.2800 C   0  0  0  0  0  0  0  0  0  0  0  0
   -2.0410   12.5450   -1.2970 C   0  0  0  0  0  0  0  0  0  0  0  0
   -0.8420   11.6120   -1.5840 C   0  0  1  0  0  0  0  0  0  0  0  0
   -0.8590   11.4000   -3.1310 C   0  0  0  0  0  0  0  0  0  0  0  0
    0.5550   12.1080   -1.0860 C   0  0  2  0  0  0  0  0  0  0  0  0
    1.0490   13.4170   -1.7260 C   0  0  0  0  0  0  0  0  0  0  0  0
    1.8630   13.2530   -2.9660 C   0  0  0  0  0  0  0  0  0  0  0  0
    2.4250   12.1040   -3.3860 C   0  0  0  0  0  0  0  0  0  0  0  0
    2.3470   10.8310   -2.5340 C   0  0  1  0  0  0  0  0  0  0  0  0
    3.7470   10.1660   -2.4670 C   0  0  0  0  0  0  0  0  0  0  0  0
    4.3390    9.9080   -3.8490 C   0  0  0  0  0  0  0  0  0  0  0  0
    4.4540   11.2060   -4.6450 C   0  0  2  0  0  0  0  0  0  0  0  0
    5.4270   12.0460   -4.0160 O   0  0  0  0  0  0  0  0  0  0  0  0
    3.1060   11.9690   -4.7700 C   0  0  0  0  0  0  0  0  0  0  0  0
    2.1520   11.1890   -5.7080 C   0  0  0  0  0  0  0  0  0  0  0  0
    3.3890   13.3250   -5.4710 C   0  0  0  0  0  0  0  0  0  0  0  0
    1.6810   10.9960   -1.1000 C   0  0  1  0  0  0  0  0  0  0  0  0
    2.7560   11.4380   -0.0610 C   0  0  0  0  0  0  0  0  0  0  0  0
    1.1460    9.5960   -0.6180 C   0  0  0  0  0  0  0  0  0  0  0  0
   -0.2850    9.2150   -1.0430 C   0  0  0  0  0  0  0  0  0  0  0  0
   -1.2670   10.3520   -0.7460 C   0  0  2  0  0  0  0  0  0  0  0  0
   -1.2870   10.5730    0.8050 C   0  0  0  0  0  0  0  0  0  0  0  0
   -3.2608    7.1469    0.0911 H   0  0  0  0  0  0  0  0  0  0  0  0
   -4.2158    7.4078   -1.4078 H   0  0  0  0  0  0  0  0  0  0  0  0
   -2.4447    7.7073   -1.4078 H   0  0  0  0  0  0  0  0  0  0  0  0
   -3.3566    9.3159    0.6660 H   0  0  0  0  0  0  0  0  0  0  0  0
   -5.6591    9.2034    0.2823 H   0  0  0  0  0  0  0  0  0  0  0  0
   -5.1230   10.7284   -0.5729 H   0  0  0  0  0  0  0  0  0  0  0  0
   -6.1535   10.0102   -2.3934 H   0  0  0  0  0  0  0  0  0  0  0  0
   -4.9438    8.6617   -2.4670 H   0  0  0  0  0  0  0  0  0  0  0  0
   -6.7744    8.3352   -0.5326 H   0  0  0  0  0  0  0  0  0  0  0  0
   -8.2823    9.7457   -3.6074 H   0  0  0  0  0  0  0  0  0  0  0  0
   -7.1750    8.5919   -4.4256 H   0  0  0  0  0  0  0  0  0  0  0  0
   -8.9458    8.2907   -4.4256 H   0  0  0  0  0  0  0  0  0  0  0  0
   -9.1957    7.2986   -0.9334 H   0  0  0  0  0  0  0  0  0  0  0  0
  -10.0942    7.8541   -2.3862 H   0  0  0  0  0  0  0  0  0  0  0  0
   -9.2924    6.2467   -2.3862 H   0  0  0  0  0  0  0  0  0  0  0  0
   -2.7389    9.6142   -2.1835 H   0  0  0  0  0  0  0  0  0  0  0  0
   -3.8725   11.7484   -2.1909 H   0  0  0  0  0  0  0  0  0  0  0  0
   -3.9200   11.8162   -0.4161 H   0  0  0  0  0  0  0  0  0  0  0  0
   -2.1418   13.3025   -2.0882 H   0  0  0  0  0  0  0  0  0  0  0  0
   -1.9240   13.0963   -0.3524 H   0  0  0  0  0  0  0  0  0  0  0  0
   -0.9451   10.3261   -3.3530 H   0  0  0  0  0  0  0  0  0  0  0  0
   -1.7172   11.9341   -3.5649 H   0  0  0  0  0  0  0  0  0  0  0  0
    0.0733   11.7905   -3.5649 H   0  0  0  0  0  0  0  0  0  0  0  0
    0.3573   12.3479   -0.0308 H   0  0  0  0  0  0  0  0  0  0  0  0
    0.1682   14.0267   -1.9758 H   0  0  0  0  0  0  0  0  0  0  0  0
    1.7138   13.8857   -0.9855 H   0  0  0  0  0  0  0  0  0  0  0  0
    2.0168   14.1462   -3.5894 H   0  0  0  0  0  0  0  0  0  0  0  0
    1.6407   10.1634   -3.0492 H   0  0  0  0  0  0  0  0  0  0  0  0
    4.4260   10.8290   -1.9107 H   0  0  0  0  0  0  0  0  0  0  0  0
    3.6309    9.1933   -1.9667 H   0  0  0  0  0  0  0  0  0  0  0  0
    5.3398    9.4659   -3.7350 H   0  0  0  0  0  0  0  0  0  0  0  0
    3.6742    9.2207   -4.3927 H   0  0  0  0  0  0  0  0  0  0  0  0
    4.7594   10.9412   -5.6680 H   0  0  0  0  0  0  0  0  0  0  0  0
    6.2340   11.5200   -3.8910 H   0  0  0  0  0  0  0  0  0  0  0  0
    1.4398   10.6067   -5.1049 H   0  0  0  0  0  0  0  0  0  0  0  0
    1.6008   11.8984   -6.3427 H   0  0  0  0  0  0  0  0  0  0  0  0
    2.7378   10.5078   -6.3427 H   0  0  0  0  0  0  0  0  0  0  0  0
    3.5515   14.1037   -4.7112 H   0  0  0  0  0  0  0  0  0  0  0  0
    4.2872   13.2326   -6.0992 H   0  0  0  0  0  0  0  0  0  0  0  0
    2.5288   13.5996   -6.0992 H   0  0  0  0  0  0  0  0  0  0  0  0
    2.3696   11.2791    0.9566 H   0  0  0  0  0  0  0  0  0  0  0  0
    3.6700   10.8427   -0.2032 H   0  0  0  0  0  0  0  0  0  0  0  0
    2.9869   12.5040   -0.2032 H   0  0  0  0  0  0  0  0  0  0  0  0
    1.8261    8.8264   -1.0119 H   0  0  0  0  0  0  0  0  0  0  0  0
    1.1119    9.6634    0.4794 H   0  0  0  0  0  0  0  0  0  0  0  0
   -0.2954    9.0036   -2.1224 H   0  0  0  0  0  0  0  0  0  0  0  0
   -0.5949    8.3266   -0.4732 H   0  0  0  0  0  0  0  0  0  0  0  0
   -1.1992    9.6023    1.3148 H   0  0  0  0  0  0  0  0  0  0  0  0
   -0.4435   11.2169    1.0945 H   0  0  0  0  0  0  0  0  0  0  0  0
   -2.2324   11.0550    1.0945 H   0  0  0  0  0  0  0  0  0  0  0  0
  1  2  1  0
  2  3  1  0
  3  4  1  0
  4  5  1  0
  5  6  1  0
  6  7  1  0
  7  8  1  0
  7  9  1  0
  2 10  1  0
 10 11  1  0
 11 12  1  0
 12 13  1  0
 13 14  1  6
 13 15  1  0
 15 16  1  0
 16 17  1  0
 17 18  2  0
 18 19  1  0
 19 20  1  0
 20 21  1  0
 21 22  1  0
 22 23  1  0
 22 24  1  0
 24 25  1  0
 24 26  1  0
 19 27  1  0
 27 28  1  1
 27 29  1  0
 29 30  1  0
 30 31  1  0
 31 32  1  1
  7  5  1  0
 31 10  1  0
 31 13  1  0
 27 15  1  0
 24 18  1  0
  1 33  1  0
  1 34  1  0
  1 35  1  0
  2 36  1  1
  3 37  1  0
  3 38  1  0
  4 39  1  0
  4 40  1  0
  5 41  1  1
  8 42  1  0
  8 43  1  0
  8 44  1  0
  9 45  1  0
  9 46  1  0
  9 47  1  0
 10 48  1  6
 11 49  1  0
 11 50  1  0
 12 51  1  0
 12 52  1  0
 14 53  1  0
 14 54  1  0
 14 55  1  0
 15 56  1  1
 16 57  1  0
 16 58  1  0
 17 59  1  0
 19 60  1  6
 20 61  1  0
 20 62  1  0
 21 63  1  0
 21 64  1  0
 22 65  1  6
 23 66  1  0
 25 67  1  0
 25 68  1  0
 25 69  1  0
 26 70  1  0
 26 71  1  0
 26 72  1  0
 28 73  1  0
 28 74  1  0
 28 75  1  0
 29 76  1  0
 29 77  1  0
 30 78  1  0
 30 79  1  0
 32 80  1  0
 32 81  1  0
 32 82  1  0
M  END
>  <meeko>  (12) 
{"is_sidechain": [false], "intermolecular_energy": 2.731, "internal_energy": -0.839}

$$$$
EPH_relaxed_0001_pdb2pqr_Repair_106_r2_0001_out
     RDKit          3D

 82 86  0  0  0  0  0  0  0  0999 V2000
   -4.6110    6.9700   -3.0880 C   0  0  0  0  0  0  0  0  0  0  0  0
   -4.3590    7.1750   -1.5920 C   0  0  2  0  0  0  0  0  0  0  0  0
   -5.6530    7.0550   -0.7630 C   0  0  0  0  0  0  0  0  0  0  0  0
   -6.8770    6.6460   -1.5870 C   0  0  0  0  0  0  0  0  0  0  0  0
   -7.6220    7.8400   -2.1030 C   0  0  2  0  0  0  0  0  0  0  0  0
   -8.9890    7.5870   -2.4540 O   0  0  0  0  0  0  0  0  0  0  0  0
   -8.1170    7.9630   -3.5320 C   0  0  0  0  0  0  0  0  0  0  0  0
   -7.8850    6.8770   -4.5350 C   0  0  0  0  0  0  0  0  0  0  0  0
   -8.3900    9.3300   -4.0790 C   0  0  0  0  0  0  0  0  0  0  0  0
   -3.7120    8.5340   -1.3550 C   0  0  1  0  0  0  0  0  0  0  0  0
   -4.3220    9.2830   -0.1410 C   0  0  0  0  0  0  0  0  0  0  0  0
   -3.1660   10.0720    0.5260 C   0  0  0  0  0  0  0  0  0  0  0  0
   -2.0140   10.0210   -0.5040 C   0  0  1  0  0  0  0  0  0  0  0  0
   -2.3500   11.1410   -1.5380 C   0  0  0  0  0  0  0  0  0  0  0  0
   -0.5670   10.1780    0.0680 C   0  0  2  0  0  0  0  0  0  0  0  0
   -0.2800   11.5250    0.7540 C   0  0  0  0  0  0  0  0  0  0  0  0
    0.2590   12.5930   -0.1390 C   0  0  0  0  0  0  0  0  0  0  0  0
    0.7700   12.4010   -1.3690 C   0  0  0  0  0  0  0  0  0  0  0  0
    0.9320   10.9870   -1.9410 C   0  0  1  0  0  0  0  0  0  0  0  0
    2.3430   10.8420   -2.5700 C   0  0  0  0  0  0  0  0  0  0  0  0
    2.6390   11.9260   -3.6010 C   0  0  0  0  0  0  0  0  0  0  0  0
    2.5240   13.3160   -2.9800 C   0  0  2  0  0  0  0  0  0  0  0  0
    3.5680   13.4770   -2.0150 O   0  0  0  0  0  0  0  0  0  0  0  0
    1.1470   13.5740   -2.3070 C   0  0  0  0  0  0  0  0  0  0  0  0
    0.0510   13.6980   -3.3940 C   0  0  0  0  0  0  0  0  0  0  0  0
    1.2130   14.9540   -1.5980 C   0  0  0  0  0  0  0  0  0  0  0  0
    0.5790    9.7940   -0.9530 C   0  0  1  0  0  0  0  0  0  0  0  0
    1.8300    9.4220   -0.0990 C   0  0  0  0  0  0  0  0  0  0  0  0
    0.2230    8.5140   -1.7980 C   0  0  0  0  0  0  0  0  0  0  0  0
   -1.2470    8.3550   -2.2320 C   0  0  0  0  0  0  0  0  0  0  0  0
   -2.1940    8.5550   -1.0450 C   0  0  2  0  0  0  0  0  0  0  0  0
   -1.8940    7.4290    0.0020 C   0  0  0  0  0  0  0  0  0  0  0  0
   -5.4575    6.2813   -3.2262 H   0  0  0  0  0  0  0  0  0  0  0  0
   -4.8450    7.9374   -3.5564 H   0  0  0  0  0  0  0  0  0  0  0  0
   -3.7115    6.5440   -3.5564 H   0  0  0  0  0  0  0  0  0  0  0  0
   -3.6791    6.3770   -1.2589 H   0  0  0  0  0  0  0  0  0  0  0  0
   -5.4942    6.2999    0.0210 H   0  0  0  0  0  0  0  0  0  0  0  0
   -5.8630    8.0524   -0.3493 H   0  0  0  0  0  0  0  0  0  0  0  0
   -6.5448    6.0368   -2.4406 H   0  0  0  0  0  0  0  0  0  0  0  0
   -7.5541    6.0748   -0.9349 H   0  0  0  0  0  0  0  0  0  0  0  0
   -7.0304    8.5142   -1.4662 H   0  0  0  0  0  0  0  0  0  0  0  0
   -7.6829    5.9311   -4.0111 H   0  0  0  0  0  0  0  0  0  0  0  0
   -8.7791    6.7632   -5.1656 H   0  0  0  0  0  0  0  0  0  0  0  0
   -7.0224    7.1384   -5.1656 H   0  0  0  0  0  0  0  0  0  0  0  0
   -8.5310   10.0362   -3.2475 H   0  0  0  0  0  0  0  0  0  0  0  0
   -7.5390    9.6549   -4.6957 H   0  0  0  0  0  0  0  0  0  0  0  0
   -9.3005    9.3031   -4.6957 H   0  0  0  0  0  0  0  0  0  0  0  0
   -3.9033    9.0014   -2.3322 H   0  0  0  0  0  0  0  0  0  0  0  0
   -5.1073    9.9752   -0.4788 H   0  0  0  0  0  0  0  0  0  0  0  0
   -4.7792    8.5777    0.5686 H   0  0  0  0  0  0  0  0  0  0  0  0
   -3.4672   11.1119    0.7206 H   0  0  0  0  0  0  0  0  0  0  0  0
   -2.8761    9.6456    1.4977 H   0  0  0  0  0  0  0  0  0  0  0  0
   -2.6263   12.0621   -1.0040 H   0  0  0  0  0  0  0  0  0  0  0  0
   -1.4700   11.3332   -2.1693 H   0  0  0  0  0  0  0  0  0  0  0  0
   -3.1905   10.8170   -2.1693 H   0  0  0  0  0  0  0  0  0  0  0  0
   -0.5466    9.4240    0.8686 H   0  0  0  0  0  0  0  0  0  0  0  0
   -1.2205   11.8907    1.1920 H   0  0  0  0  0  0  0  0  0  0  0  0
    0.5047   11.3262    1.4988 H   0  0  0  0  0  0  0  0  0  0  0  0
    0.2365   13.6251    0.2409 H   0  0  0  0  0  0  0  0  0  0  0  0
    0.1628   10.8845   -2.7206 H   0  0  0  0  0  0  0  0  0  0  0  0
    3.0941   10.9033   -1.7687 H   0  0  0  0  0  0  0  0  0  0  0  0
    2.3796    9.8716   -3.0866 H   0  0  0  0  0  0  0  0  0  0  0  0
    3.6599   11.7872   -3.9862 H   0  0  0  0  0  0  0  0  0  0  0  0
    1.9056   11.8442   -4.4167 H   0  0  0  0  0  0  0  0  0  0  0  0
    2.6180   14.0500   -3.7939 H   0  0  0  0  0  0  0  0  0  0  0  0
    3.1750   13.3620   -1.1330 H   0  0  0  0  0  0  0  0  0  0  0  0
   -0.9318   13.8092   -2.9127 H   0  0  0  0  0  0  0  0  0  0  0  0
    0.2541   14.5789   -4.0207 H   0  0  0  0  0  0  0  0  0  0  0  0
    0.0522   12.7940   -4.0207 H   0  0  0  0  0  0  0  0  0  0  0  0
    1.2060   14.8069   -0.5079 H   0  0  0  0  0  0  0  0  0  0  0  0
    2.1370   15.4734   -1.8919 H   0  0  0  0  0  0  0  0  0  0  0  0
    0.3428   15.5592   -1.8919 H   0  0  0  0  0  0  0  0  0  0  0  0
    1.5798    9.4964    0.9696 H   0  0  0  0  0  0  0  0  0  0  0  0
    2.1402    8.3927   -0.3321 H   0  0  0  0  0  0  0  0  0  0  0  0
    2.6522   10.1145   -0.3321 H   0  0  0  0  0  0  0  0  0  0  0  0
    0.8387    8.5350   -2.7093 H   0  0  0  0  0  0  0  0  0  0  0  0
    0.4193    7.6634   -1.1287 H   0  0  0  0  0  0  0  0  0  0  0  0
   -1.4767    9.1027   -3.0055 H   0  0  0  0  0  0  0  0  0  0  0  0
   -1.3883    7.3376   -2.6257 H   0  0  0  0  0  0  0  0  0  0  0  0
   -2.0022    7.8352    1.0185 H   0  0  0  0  0  0  0  0  0  0  0  0
   -2.6024    6.5993   -0.1387 H   0  0  0  0  0  0  0  0  0  0  0  0
   -0.8667    7.0618   -0.1387 H   0  0  0  0  0  0  0  0  0  0  0  0
  1  2  1  0
  2  3  1  0
  3  4  1  0
  4  5  1  0
  5  6  1  0
  6  7  1  0
  7  8  1  0
  7  9  1  0
  2 10  1  0
 10 11  1  0
 11 12  1  0
 12 13  1  0
 13 14  1  6
 13 15  1  0
 15 16  1  0
 16 17  1  0
 17 18  2  0
 18 19  1  0
 19 20  1  0
 20 21  1  0
 21 22  1  0
 22 23  1  0
 22 24  1  0
 24 25  1  0
 24 26  1  0
 19 27  1  0
 27 28  1  1
 27 29  1  0
 29 30  1  0
 30 31  1  0
 31 32  1  1
  7  5  1  0
 31 10  1  0
 31 13  1  0
 27 15  1  0
 24 18  1  0
  1 33  1  0
  1 34  1  0
  1 35  1  0
  2 36  1  1
  3 37  1  0
  3 38  1  0
  4 39  1  0
  4 40  1  0
  5 41  1  1
  8 42  1  0
  8 43  1  0
  8 44  1  0
  9 45  1  0
  9 46  1  0
  9 47  1  0
 10 48  1  6
 11 49  1  0
 11 50  1  0
 12 51  1  0
 12 52  1  0
 14 53  1  0
 14 54  1  0
 14 55  1  0
 15 56  1  1
 16 57  1  0
 16 58  1  0
 17 59  1  0
 19 60  1  6
 20 61  1  0
 20 62  1  0
 21 63  1  0
 21 64  1  0
 22 65  1  6
 23 66  1  0
 25 67  1  0
 25 68  1  0
 25 69  1  0
 26 70  1  0
 26 71  1  0
 26 72  1  0
 28 73  1  0
 28 74  1  0
 28 75  1  0
 29 76  1  0
 29 77  1  0
 30 78  1  0
 30 79  1  0
 32 80  1  0
 32 81  1  0
 32 82  1  0
M  END
>  <meeko>  (13) 
{"is_sidechain": [false], "intermolecular_energy": 2.731, "internal_energy": -0.839}

$$$$
EPH_relaxed_0001_pdb2pqr_Repair_106_r2_0001_out
     RDKit          3D

 82 86  0  0  0  0  0  0  0  0999 V2000
   -4.7120    6.9830   -3.2070 C   0  0  0  0  0  0  0  0  0  0  0  0
   -4.5510    7.2040   -1.7000 C   0  0  2  0  0  0  0  0  0  0  0  0
   -5.9000    7.1430   -0.9560 C   0  0  0  0  0  0  0  0  0  0  0  0
   -6.8700    6.1040   -1.5260 C   0  0  0  0  0  0  0  0  0  0  0  0
   -8.0660    6.7500   -2.1580 C   0  0  2  0  0  0  0  0  0  0  0  0
   -8.2220    8.1430   -1.8590 O   0  0  0  0  0  0  0  0  0  0  0  0
   -9.2510    7.2700   -1.3670 C   0  0  0  0  0  0  0  0  0  0  0  0
   -9.3000    7.1660    0.1260 C   0  0  0  0  0  0  0  0  0  0  0  0
  -10.5640    7.4310   -2.0680 C   0  0  0  0  0  0  0  0  0  0  0  0
   -3.8740    8.5450   -1.4410 C   0  0  1  0  0  0  0  0  0  0  0  0
   -4.4950    9.3060   -0.2400 C   0  0  0  0  0  0  0  0  0  0  0  0
   -3.3350   10.0600    0.4600 C   0  0  0  0  0  0  0  0  0  0  0  0
   -2.1590    9.9820   -0.5410 C   0  0  1  0  0  0  0  0  0  0  0  0
   -2.4380   11.1150   -1.5780 C   0  0  0  0  0  0  0  0  0  0  0  0
   -0.7240   10.0980    0.0680 C   0  0  2  0  0  0  0  0  0  0  0  0
   -0.4180   11.4350    0.7670 C   0  0  0  0  0  0  0  0  0  0  0  0
    0.1720   12.4910   -0.1070 C   0  0  0  0  0  0  0  0  0  0  0  0
    0.7090   12.2890   -1.3250 C   0  0  0  0  0  0  0  0  0  0  0  0
    0.8480   10.8730   -1.8990 C   0  0  1  0  0  0  0  0  0  0  0  0
    2.2700   10.6930   -2.4920 C   0  0  0  0  0  0  0  0  0  0  0  0
    2.6210   11.7730   -3.5110 C   0  0  0  0  0  0  0  0  0  0  0  0
    2.5270   13.1630   -2.8860 C   0  0  2  0  0  0  0  0  0  0  0  0
    3.5510   13.2920   -1.8950 O   0  0  0  0  0  0  0  0  0  0  0  0
    1.1410   13.4550   -2.2470 C   0  0  0  0  0  0  0  0  0  0  0  0
    0.0770   13.6130   -3.3620 C   0  0  0  0  0  0  0  0  0  0  0  0
    1.2260   14.8300   -1.5310 C   0  0  0  0  0  0  0  0  0  0  0  0
    0.4380    9.6870   -0.9250 C   0  0  1  0  0  0  0  0  0  0  0  0
    1.6550    9.2790   -0.0400 C   0  0  0  0  0  0  0  0  0  0  0  0
    0.0690    8.4200   -1.7840 C   0  0  0  0  0  0  0  0  0  0  0  0
   -1.3930    8.3020   -2.2560 C   0  0  0  0  0  0  0  0  0  0  0  0
   -2.3640    8.5240   -1.0930 C   0  0  2  0  0  0  0  0  0  0  0  0
   -2.1220    7.3860   -0.0440 C   0  0  0  0  0  0  0  0  0  0  0  0
   -5.3514    6.1053   -3.3826 H   0  0  0  0  0  0  0  0  0  0  0  0
   -5.1761    7.8713   -3.6604 H   0  0  0  0  0  0  0  0  0  0  0  0
   -3.7242    6.8136   -3.6604 H   0  0  0  0  0  0  0  0  0  0  0  0
   -3.9230    6.3887   -1.3116 H   0  0  0  0  0  0  0  0  0  0  0  0
   -5.7047    6.8948    0.0977 H   0  0  0  0  0  0  0  0  0  0  0  0
   -6.3771    8.1272   -1.0734 H   0  0  0  0  0  0  0  0  0  0  0  0
   -6.3454    5.5053   -2.2852 H   0  0  0  0  0  0  0  0  0  0  0  0
   -7.2201    5.4709   -0.6974 H   0  0  0  0  0  0  0  0  0  0  0  0
   -7.9962    6.0817   -3.0289 H   0  0  0  0  0  0  0  0  0  0  0  0
   -8.8713    8.0759    0.5712 H   0  0  0  0  0  0  0  0  0  0  0  0
  -10.3448    7.0556    0.4518 H   0  0  0  0  0  0  0  0  0  0  0  0
   -8.7199    6.2900    0.4518 H   0  0  0  0  0  0  0  0  0  0  0  0
  -11.3676    7.5295   -1.3233 H   0  0  0  0  0  0  0  0  0  0  0  0
  -10.5353    8.3323   -2.6979 H   0  0  0  0  0  0  0  0  0  0  0  0
  -10.7539    6.5494   -2.6979 H   0  0  0  0  0  0  0  0  0  0  0  0
   -4.0277    9.0211   -2.4206 H   0  0  0  0  0  0  0  0  0  0  0  0
   -5.2518   10.0210   -0.5950 H   0  0  0  0  0  0  0  0  0  0  0  0
   -4.9903    8.6113    0.4543 H   0  0  0  0  0  0  0  0  0  0  0  0
   -3.6125   11.1069    0.6523 H   0  0  0  0  0  0  0  0  0  0  0  0
   -3.0815    9.6214    1.4364 H   0  0  0  0  0  0  0  0  0  0  0  0
   -2.6683   12.0501   -1.0464 H   0  0  0  0  0  0  0  0  0  0  0  0
   -1.5491   11.2614   -2.2092 H   0  0  0  0  0  0  0  0  0  0  0  0
   -3.2933   10.8319   -2.2092 H   0  0  0  0  0  0  0  0  0  0  0  0
   -0.7452    9.3406    0.8654 H   0  0  0  0  0  0  0  0  0  0  0  0
   -1.3591   11.8244    1.1826 H   0  0  0  0  0  0  0  0  0  0  0  0
    0.3420   11.2123    1.5304 H   0  0  0  0  0  0  0  0  0  0  0  0
    0.1678   13.5220    0.2765 H   0  0  0  0  0  0  0  0  0  0  0  0
    0.0970   10.7933   -2.6988 H   0  0  0  0  0  0  0  0  0  0  0  0
    3.0015   10.7316   -1.6714 H   0  0  0  0  0  0  0  0  0  0  0  0
    2.2944    9.7237   -3.0115 H   0  0  0  0  0  0  0  0  0  0  0  0
    3.6474   11.6086   -3.8709 H   0  0  0  0  0  0  0  0  0  0  0  0
    1.9070   11.7140   -4.3457 H   0  0  0  0  0  0  0  0  0  0  0  0
    2.6604   13.8980   -3.6934 H   0  0  0  0  0  0  0  0  0  0  0  0
    3.1210   13.2700   -1.0230 H   0  0  0  0  0  0  0  0  0  0  0  0
   -0.9131   13.7600   -2.9058 H   0  0  0  0  0  0  0  0  0  0  0  0
    0.3263   14.4840   -3.9859 H   0  0  0  0  0  0  0  0  0  0  0  0
    0.0624   12.7072   -3.9859 H   0  0  0  0  0  0  0  0  0  0  0  0
    1.2166   14.6774   -0.4417 H   0  0  0  0  0  0  0  0  0  0  0  0
    2.1573   15.3380   -1.8220 H   0  0  0  0  0  0  0  0  0  0  0  0
    0.3644   15.4488   -1.8220 H   0  0  0  0  0  0  0  0  0  0  0  0
    1.3831    9.3702    1.0219 H   0  0  0  0  0  0  0  0  0  0  0  0
    1.9348    8.2379   -0.2588 H   0  0  0  0  0  0  0  0  0  0  0  0
    2.5058    9.9410   -0.2588 H   0  0  0  0  0  0  0  0  0  0  0  0
    0.7081    8.4274   -2.6793 H   0  0  0  0  0  0  0  0  0  0  0  0
    0.2248    7.5623   -1.1132 H   0  0  0  0  0  0  0  0  0  0  0  0
   -1.5826    9.0579   -3.0324 H   0  0  0  0  0  0  0  0  0  0  0  0
   -1.5515    7.2900   -2.6570 H   0  0  0  0  0  0  0  0  0  0  0  0
   -2.2098    7.7989    0.9718 H   0  0  0  0  0  0  0  0  0  0  0  0
   -2.8716    6.5932   -0.1836 H   0  0  0  0  0  0  0  0  0  0  0  0
   -1.1146    6.9668   -0.1836 H   0  0  0  0  0  0  0  0  0  0  0  0
  1  2  1  0
  2  3  1  0
  3  4  1  0
  4  5  1  0
  5  6  1  0
  6  7  1  0
  7  8  1  0
  7  9  1  0
  2 10  1  0
 10 11  1  0
 11 12  1  0
 12 13  1  0
 13 14  1  6
 13 15  1  0
 15 16  1  0
 16 17  1  0
 17 18  2  0
 18 19  1  0
 19 20  1  0
 20 21  1  0
 21 22  1  0
 22 23  1  0
 22 24  1  0
 24 25  1  0
 24 26  1  0
 19 27  1  0
 27 28  1  1
 27 29  1  0
 29 30  1  0
 30 31  1  0
 31 32  1  1
  7  5  1  0
 31 10  1  0
 31 13  1  0
 27 15  1  0
 24 18  1  0
  1 33  1  0
  1 34  1  0
  1 35  1  0
  2 36  1  1
  3 37  1  0
  3 38  1  0
  4 39  1  0
  4 40  1  0
  5 41  1  6
  8 42  1  0
  8 43  1  0
  8 44  1  0
  9 45  1  0
  9 46  1  0
  9 47  1  0
 10 48  1  6
 11 49  1  0
 11 50  1  0
 12 51  1  0
 12 52  1  0
 14 53  1  0
 14 54  1  0
 14 55  1  0
 15 56  1  1
 16 57  1  0
 16 58  1  0
 17 59  1  0
 19 60  1  6
 20 61  1  0
 20 62  1  0
 21 63  1  0
 21 64  1  0
 22 65  1  6
 23 66  1  0
 25 67  1  0
 25 68  1  0
 25 69  1  0
 26 70  1  0
 26 71  1  0
 26 72  1  0
 28 73  1  0
 28 74  1  0
 28 75  1  0
 29 76  1  0
 29 77  1  0
 30 78  1  0
 30 79  1  0
 32 80  1  0
 32 81  1  0
 32 82  1  0
M  END
>  <meeko>  (14) 
{"is_sidechain": [false], "intermolecular_energy": 2.731, "internal_energy": -0.839}

$$$$
EPH_relaxed_0001_pdb2pqr_Repair_106_r2_0001_out
     RDKit          3D

 82 86  0  0  0  0  0  0  0  0999 V2000
   -1.0310   16.4240   -5.8700 C   0  0  0  0  0  0  0  0  0  0  0  0
    0.1060   15.6920   -6.5880 C   0  0  2  0  0  0  0  0  0  0  0  0
   -0.2530   15.3490   -8.0480 C   0  0  0  0  0  0  0  0  0  0  0  0
    0.3200   16.3340   -9.0700 C   0  0  0  0  0  0  0  0  0  0  0  0
    1.7450   16.0150   -9.4090 C   0  0  2  0  0  0  0  0  0  0  0  0
    2.2420   16.6700  -10.5830 O   0  0  0  0  0  0  0  0  0  0  0  0
    2.1560   15.2370  -10.6450 C   0  0  0  0  0  0  0  0  0  0  0  0
    1.1420   14.7300  -11.6210 C   0  0  0  0  0  0  0  0  0  0  0  0
    3.4880   14.5540  -10.6500 C   0  0  0  0  0  0  0  0  0  0  0  0
    0.4670   14.4200   -5.8280 C   0  0  1  0  0  0  0  0  0  0  0  0
    1.5960   13.6110   -6.5190 C   0  0  0  0  0  0  0  0  0  0  0  0
    2.4430   12.9700   -5.3900 C   0  0  0  0  0  0  0  0  0  0  0  0
    1.5900   13.1520   -4.1120 C   0  0  1  0  0  0  0  0  0  0  0  0
    0.5460   11.9930   -4.1590 C   0  0  0  0  0  0  0  0  0  0  0  0
    2.3710   13.1710   -2.7580 C   0  0  2  0  0  0  0  0  0  0  0  0
    3.1230   11.8730   -2.4190 C   0  0  0  0  0  0  0  0  0  0  0  0
    2.3440   10.8710   -1.6330 C   0  0  0  0  0  0  0  0  0  0  0  0
    1.1970   11.1160   -0.9730 C   0  0  0  0  0  0  0  0  0  0  0  0
    0.6210   12.5350   -0.8940 C   0  0  1  0  0  0  0  0  0  0  0  0
    0.2010   12.8440    0.5680 C   0  0  0  0  0  0  0  0  0  0  0  0
   -0.7500   11.7960    1.1370 C   0  0  0  0  0  0  0  0  0  0  0  0
   -0.1190   10.4060    1.0950 C   0  0  2  0  0  0  0  0  0  0  0  0
    0.9910   10.3760    1.9970 O   0  0  0  0  0  0  0  0  0  0  0  0
    0.3520    9.9900   -0.3270 C   0  0  0  0  0  0  0  0  0  0  0  0
   -0.8810    9.7290   -1.2280 C   0  0  0  0  0  0  0  0  0  0  0  0
    1.0950    8.6320   -0.2050 C   0  0  0  0  0  0  0  0  0  0  0  0
    1.5190   13.6840   -1.5260 C   0  0  1  0  0  0  0  0  0  0  0  0
    2.5370   14.2070   -0.4670 C   0  0  0  0  0  0  0  0  0  0  0  0
    0.6010   14.9070   -1.9010 C   0  0  0  0  0  0  0  0  0  0  0  0
   -0.0460   14.8870   -3.2990 C   0  0  0  0  0  0  0  0  0  0  0  0
    0.9950   14.5820   -4.3810 C   0  0  2  0  0  0  0  0  0  0  0  0
    2.0470   15.7430   -4.3730 C   0  0  0  0  0  0  0  0  0  0  0  0
   -0.8944   16.3360   -4.7821 H   0  0  0  0  0  0  0  0  0  0  0  0
   -1.0216   17.4861   -6.1560 H   0  0  0  0  0  0  0  0  0  0  0  0
   -1.9939   15.9758   -6.1560 H   0  0  0  0  0  0  0  0  0  0  0  0
    0.9719   16.3700   -6.6121 H   0  0  0  0  0  0  0  0  0  0  0  0
    0.1377   14.3462   -8.2753 H   0  0  0  0  0  0  0  0  0  0  0  0
   -1.3487   15.4011   -8.1305 H   0  0  0  0  0  0  0  0  0  0  0  0
   -0.2840   16.2867   -9.9881 H   0  0  0  0  0  0  0  0  0  0  0  0
    0.2896   17.3415   -8.6296 H   0  0  0  0  0  0  0  0  0  0  0  0
    1.9967   15.8963   -8.3448 H   0  0  0  0  0  0  0  0  0  0  0  0
    0.2883   14.3031  -11.0743 H   0  0  0  0  0  0  0  0  0  0  0  0
    0.7944   15.5604  -12.2532 H   0  0  0  0  0  0  0  0  0  0  0  0
    1.5977   13.9537  -12.2532 H   0  0  0  0  0  0  0  0  0  0  0  0
    3.8174   14.3851   -9.6141 H   0  0  0  0  0  0  0  0  0  0  0  0
    3.4029   13.5883  -11.1698 H   0  0  0  0  0  0  0  0  0  0  0  0
    4.2225   15.1867  -11.1698 H   0  0  0  0  0  0  0  0  0  0  0  0
   -0.5163   13.9270   -5.8168 H   0  0  0  0  0  0  0  0  0  0  0  0
    1.1635   12.8279   -7.1591 H   0  0  0  0  0  0  0  0  0  0  0  0
    2.2142   14.2608   -7.1558 H   0  0  0  0  0  0  0  0  0  0  0  0
    2.6164   11.9028   -5.5926 H   0  0  0  0  0  0  0  0  0  0  0  0
    3.4362   13.4339   -5.2986 H   0  0  0  0  0  0  0  0  0  0  0  0
    0.2798   11.6975   -3.1334 H   0  0  0  0  0  0  0  0  0  0  0  0
   -0.3562   12.3334   -4.6884 H   0  0  0  0  0  0  0  0  0  0  0  0
    0.9785   11.1312   -4.6884 H   0  0  0  0  0  0  0  0  0  0  0  0
    3.1491   13.9255   -2.9457 H   0  0  0  0  0  0  0  0  0  0  0  0
    3.4284   11.4004   -3.3642 H   0  0  0  0  0  0  0  0  0  0  0  0
    3.9686   12.1692   -1.7809 H   0  0  0  0  0  0  0  0  0  0  0  0
    2.7410    9.8460   -1.5896 H   0  0  0  0  0  0  0  0  0  0  0  0
   -0.2652   12.5394   -1.5457 H   0  0  0  0  0  0  0  0  0  0  0  0
    1.1043   12.8778    1.1948 H   0  0  0  0  0  0  0  0  0  0  0  0
   -0.3272   13.8089    0.5669 H   0  0  0  0  0  0  0  0  0  0  0  0
   -0.9861   12.0528    2.1802 H   0  0  0  0  0  0  0  0  0  0  0  0
   -1.6653   11.7845    0.5270 H   0  0  0  0  0  0  0  0  0  0  0  0
   -0.8928    9.6833    1.3933 H   0  0  0  0  0  0  0  0  0  0  0  0
    0.6350   10.4090    2.9020 H   0  0  0  0  0  0  0  0  0  0  0  0
   -1.7629    9.5423   -0.5976 H   0  0  0  0  0  0  0  0  0  0  0  0
   -1.0638   10.6084   -1.8631 H   0  0  0  0  0  0  0  0  0  0  0  0
   -0.6918    8.8510   -1.8631 H   0  0  0  0  0  0  0  0  0  0  0  0
    1.2313    8.3828    0.8577 H   0  0  0  0  0  0  0  0  0  0  0  0
    0.5021    7.8445   -0.6931 H   0  0  0  0  0  0  0  0  0  0  0  0
    2.0779    8.7067   -0.6931 H   0  0  0  0  0  0  0  0  0  0  0  0
    2.1499   14.0081    0.5432 H   0  0  0  0  0  0  0  0  0  0  0  0
    3.5001   13.6920   -0.5986 H   0  0  0  0  0  0  0  0  0  0  0  0
    2.6792   15.2898   -0.5986 H   0  0  0  0  0  0  0  0  0  0  0  0
   -0.2102   14.9539   -1.1595 H   0  0  0  0  0  0  0  0  0  0  0  0
    1.2714   15.7791   -1.9066 H   0  0  0  0  0  0  0  0  0  0  0  0
   -0.8272   14.1129   -3.3229 H   0  0  0  0  0  0  0  0  0  0  0  0
   -0.4795   15.8780   -3.4989 H   0  0  0  0  0  0  0  0  0  0  0  0
    2.2896   16.0108   -3.3341 H   0  0  0  0  0  0  0  0  0  0  0  0
    2.9605   15.4136   -4.8897 H   0  0  0  0  0  0  0  0  0  0  0  0
    1.6294   16.6197   -4.8897 H   0  0  0  0  0  0  0  0  0  0  0  0
  1  2  1  0
  2  3  1  0
  3  4  1  0
  4  5  1  0
  5  6  1  0
  6  7  1  0
  7  8  1  0
  7  9  1  0
  2 10  1  0
 10 11  1  0
 11 12  1  0
 12 13  1  0
 13 14  1  1
 13 15  1  0
 15 16  1  0
 16 17  1  0
 17 18  2  0
 18 19  1  0
 19 20  1  0
 20 21  1  0
 21 22  1  0
 22 23  1  0
 22 24  1  0
 24 25  1  0
 24 26  1  0
 19 27  1  0
 27 28  1  1
 27 29  1  0
 29 30  1  0
 30 31  1  0
 31 32  1  6
  7  5  1  0
 31 10  1  0
 31 13  1  0
 27 15  1  0
 24 18  1  0
  1 33  1  0
  1 34  1  0
  1 35  1  0
  2 36  1  6
  3 37  1  0
  3 38  1  0
  4 39  1  0
  4 40  1  0
  5 41  1  1
  8 42  1  0
  8 43  1  0
  8 44  1  0
  9 45  1  0
  9 46  1  0
  9 47  1  0
 10 48  1  1
 11 49  1  0
 11 50  1  0
 12 51  1  0
 12 52  1  0
 14 53  1  0
 14 54  1  0
 14 55  1  0
 15 56  1  6
 16 57  1  0
 16 58  1  0
 17 59  1  0
 19 60  1  6
 20 61  1  0
 20 62  1  0
 21 63  1  0
 21 64  1  0
 22 65  1  1
 23 66  1  0
 25 67  1  0
 25 68  1  0
 25 69  1  0
 26 70  1  0
 26 71  1  0
 26 72  1  0
 28 73  1  0
 28 74  1  0
 28 75  1  0
 29 76  1  0
 29 77  1  0
 30 78  1  0
 30 79  1  0
 32 80  1  0
 32 81  1  0
 32 82  1  0
M  END
>  <meeko>  (15) 
{"is_sidechain": [false], "intermolecular_energy": 2.731, "internal_energy": -0.839}

$$$$
EPH_relaxed_0001_pdb2pqr_Repair_106_r2_0001_out
     RDKit          3D

 82 86  0  0  0  0  0  0  0  0999 V2000
    0.9640    9.6490    0.6720 C   0  0  0  0  0  0  0  0  0  0  0  0
    0.1190   10.2700   -0.4450 C   0  0  2  0  0  0  0  0  0  0  0  0
   -0.2190    9.2510   -1.5520 C   0  0  0  0  0  0  0  0  0  0  0  0
   -1.5440    8.5180   -1.3300 C   0  0  0  0  0  0  0  0  0  0  0  0
   -2.6660    9.4720   -1.0510 C   0  0  2  0  0  0  0  0  0  0  0  0
   -3.2920    9.3030    0.2280 O   0  0  0  0  0  0  0  0  0  0  0  0
   -4.1160    9.0440   -0.9210 C   0  0  0  0  0  0  0  0  0  0  0  0
   -4.5220    7.6120   -1.0680 C   0  0  0  0  0  0  0  0  0  0  0  0
   -5.1860   10.0680   -1.1380 C   0  0  0  0  0  0  0  0  0  0  0  0
    0.8480   11.4670   -1.0430 C   0  0  1  0  0  0  0  0  0  0  0  0
    1.1800   11.2740   -2.5470 C   0  0  0  0  0  0  0  0  0  0  0  0
    1.0570   12.6680   -3.2150 C   0  0  0  0  0  0  0  0  0  0  0  0
    0.9870   13.6620   -2.0320 C   0  0  1  0  0  0  0  0  0  0  0  0
    2.4700   13.8660   -1.5910 C   0  0  0  0  0  0  0  0  0  0  0  0
    0.2770   15.0260   -2.3170 C   0  0  2  0  0  0  0  0  0  0  0  0
    0.9500   15.9000   -3.3890 C   0  0  0  0  0  0  0  0  0  0  0  0
    1.9740   16.8600   -2.8790 C   0  0  0  0  0  0  0  0  0  0  0  0
    2.1380   17.2180   -1.5920 C   0  0  0  0  0  0  0  0  0  0  0  0
    1.1780   16.7140   -0.5060 C   0  0  1  0  0  0  0  0  0  0  0  0
    0.7540   17.8990    0.4010 C   0  0  0  0  0  0  0  0  0  0  0  0
    1.9500   18.6480    0.9810 C   0  0  0  0  0  0  0  0  0  0  0  0
    2.8490   19.1840   -0.1300 C   0  0  2  0  0  0  0  0  0  0  0  0
    2.1390   20.1940   -0.8510 O   0  0  0  0  0  0  0  0  0  0  0  0
    3.3310   18.0810   -1.1130 C   0  0  0  0  0  0  0  0  0  0  0  0
    4.3460   17.1540   -0.3990 C   0  0  0  0  0  0  0  0  0  0  0  0
    4.1110   18.7740   -2.2630 C   0  0  0  0  0  0  0  0  0  0  0  0
   -0.0630   15.8630   -1.0180 C   0  0  1  0  0  0  0  0  0  0  0  0
   -1.2400   16.8140   -1.3970 C   0  0  0  0  0  0  0  0  0  0  0  0
   -0.5850   14.9570    0.1590 C   0  0  0  0  0  0  0  0  0  0  0  0
    0.0730   13.5730    0.3140 C   0  0  0  0  0  0  0  0  0  0  0  0
    0.1120   12.8300   -1.0250 C   0  0  2  0  0  0  0  0  0  0  0  0
   -1.3670   12.5920   -1.4830 C   0  0  0  0  0  0  0  0  0  0  0  0
    0.5570    9.9481    1.6492 H   0  0  0  0  0  0  0  0  0  0  0  0
    0.9390    8.5528    0.5844 H   0  0  0  0  0  0  0  0  0  0  0  0
    2.0027   10.0002    0.5844 H   0  0  0  0  0  0  0  0  0  0  0  0
   -0.8310   10.5987    0.0017 H   0  0  0  0  0  0  0  0  0  0  0  0
   -0.2748    9.7862   -2.5114 H   0  0  0  0  0  0  0  0  0  0  0  0
    0.5750    8.4898   -1.5415 H   0  0  0  0  0  0  0  0  0  0  0  0
   -1.7858    7.9376   -2.2326 H   0  0  0  0  0  0  0  0  0  0  0  0
   -1.4291    7.8593   -0.4565 H   0  0  0  0  0  0  0  0  0  0  0  0
   -2.1792   10.2559   -1.6497 H   0  0  0  0  0  0  0  0  0  0  0  0
   -4.6493    7.1629   -0.0720 H   0  0  0  0  0  0  0  0  0  0  0  0
   -5.4717    7.5550   -1.6201 H   0  0  0  0  0  0  0  0  0  0  0  0
   -3.7435    7.0650   -1.6201 H   0  0  0  0  0  0  0  0  0  0  0  0
   -5.5567   10.4228   -0.1650 H   0  0  0  0  0  0  0  0  0  0  0  0
   -4.7728   10.9157   -1.7042 H   0  0  0  0  0  0  0  0  0  0  0  0
   -6.0148    9.6180   -1.7042 H   0  0  0  0  0  0  0  0  0  0  0  0
    1.7218   11.5025   -0.3757 H   0  0  0  0  0  0  0  0  0  0  0  0
    2.2034   10.8877   -2.6624 H   0  0  0  0  0  0  0  0  0  0  0  0
    0.4945   10.5509   -3.0131 H   0  0  0  0  0  0  0  0  0  0  0  0
    1.9343   12.8755   -3.8453 H   0  0  0  0  0  0  0  0  0  0  0  0
    0.1783   12.7395   -3.8729 H   0  0  0  0  0  0  0  0  0  0  0  0
    2.5281   13.8740   -0.4926 H   0  0  0  0  0  0  0  0  0  0  0  0
    3.0860   13.0441   -1.9848 H   0  0  0  0  0  0  0  0  0  0  0  0
    2.8412   14.8237   -1.9848 H   0  0  0  0  0  0  0  0  0  0  0  0
   -0.6821   14.7071   -2.7511 H   0  0  0  0  0  0  0  0  0  0  0  0
    1.4405   15.2326   -4.1128 H   0  0  0  0  0  0  0  0  0  0  0  0
    0.1495   16.5137   -3.8277 H   0  0  0  0  0  0  0  0  0  0  0  0
    2.6516   17.3129   -3.6178 H   0  0  0  0  0  0  0  0  0  0  0  0
    1.7447   15.9776    0.0827 H   0  0  0  0  0  0  0  0  0  0  0  0
    0.1529   18.6017   -0.1947 H   0  0  0  0  0  0  0  0  0  0  0  0
    0.1780   17.4864    1.2424 H   0  0  0  0  0  0  0  0  0  0  0  0
    1.5872   19.4903    1.5884 H   0  0  0  0  0  0  0  0  0  0  0  0
    2.5342   17.9511    1.5999 H   0  0  0  0  0  0  0  0  0  0  0  0
    3.7510   19.5963    0.3457 H   0  0  0  0  0  0  0  0  0  0  0  0
    2.1570   21.0060   -0.3160 H   0  0  0  0  0  0  0  0  0  0  0  0
    4.2333   17.2569    0.6904 H   0  0  0  0  0  0  0  0  0  0  0  0
    4.1571   16.1102   -0.6902 H   0  0  0  0  0  0  0  0  0  0  0  0
    5.3684   17.4366   -0.6902 H   0  0  0  0  0  0  0  0  0  0  0  0
    4.8694   19.4478   -1.8377 H   0  0  0  0  0  0  0  0  0  0  0  0
    4.6046   18.0111   -2.8830 H   0  0  0  0  0  0  0  0  0  0  0  0
    3.4116   19.3540   -2.8830 H   0  0  0  0  0  0  0  0  0  0  0  0
   -1.7126   17.1959   -0.4801 H   0  0  0  0  0  0  0  0  0  0  0  0
   -0.8542   17.6570   -1.9891 H   0  0  0  0  0  0  0  0  0  0  0  0
   -1.9831   16.2598   -1.9891 H   0  0  0  0  0  0  0  0  0  0  0  0
   -0.4271   15.5076    1.0981 H   0  0  0  0  0  0  0  0  0  0  0  0
   -1.6380   14.7498   -0.0823 H   0  0  0  0  0  0  0  0  0  0  0  0
    1.1010   13.7029    0.6833 H   0  0  0  0  0  0  0  0  0  0  0  0
   -0.5206   12.9808    1.0260 H   0  0  0  0  0  0  0  0  0  0  0  0
   -2.0126   12.4881   -0.5984 H   0  0  0  0  0  0  0  0  0  0  0  0
   -1.7062   13.4471   -2.0861 H   0  0  0  0  0  0  0  0  0  0  0  0
   -1.4208   11.6736   -2.0861 H   0  0  0  0  0  0  0  0  0  0  0  0
  1  2  1  0
  2  3  1  0
  3  4  1  0
  4  5  1  0
  5  6  1  0
  6  7  1  0
  7  8  1  0
  7  9  1  0
  2 10  1  0
 10 11  1  0
 11 12  1  0
 12 13  1  0
 13 14  1  1
 13 15  1  0
 15 16  1  0
 16 17  1  0
 17 18  2  0
 18 19  1  0
 19 20  1  0
 20 21  1  0
 21 22  1  0
 22 23  1  0
 22 24  1  0
 24 25  1  0
 24 26  1  0
 19 27  1  0
 27 28  1  6
 27 29  1  0
 29 30  1  0
 30 31  1  0
 31 32  1  6
  7  5  1  0
 31 10  1  0
 31 13  1  0
 27 15  1  0
 24 18  1  0
  1 33  1  0
  1 34  1  0
  1 35  1  0
  2 36  1  1
  3 37  1  0
  3 38  1  0
  4 39  1  0
  4 40  1  0
  5 41  1  6
  8 42  1  0
  8 43  1  0
  8 44  1  0
  9 45  1  0
  9 46  1  0
  9 47  1  0
 10 48  1  1
 11 49  1  0
 11 50  1  0
 12 51  1  0
 12 52  1  0
 14 53  1  0
 14 54  1  0
 14 55  1  0
 15 56  1  6
 16 57  1  0
 16 58  1  0
 17 59  1  0
 19 60  1  1
 20 61  1  0
 20 62  1  0
 21 63  1  0
 21 64  1  0
 22 65  1  1
 23 66  1  0
 25 67  1  0
 25 68  1  0
 25 69  1  0
 26 70  1  0
 26 71  1  0
 26 72  1  0
 28 73  1  0
 28 74  1  0
 28 75  1  0
 29 76  1  0
 29 77  1  0
 30 78  1  0
 30 79  1  0
 32 80  1  0
 32 81  1  0
 32 82  1  0
M  END
>  <meeko>  (16) 
{"is_sidechain": [false], "intermolecular_energy": 2.731, "internal_energy": -0.839}

$$$$
EPH_relaxed_0001_pdb2pqr_Repair_106_r2_0001_out
     RDKit          3D

 82 86  0  0  0  0  0  0  0  0999 V2000
   -1.7420    7.8970   -1.8230 C   0  0  0  0  0  0  0  0  0  0  0  0
   -1.8930    8.6170   -0.4800 C   0  0  2  0  0  0  0  0  0  0  0  0
   -3.3450    8.5830    0.0370 C   0  0  0  0  0  0  0  0  0  0  0  0
   -4.3890    8.8920   -1.0390 C   0  0  0  0  0  0  0  0  0  0  0  0
   -5.3800    7.7770   -1.1870 C   0  0  2  0  0  0  0  0  0  0  0  0
   -5.3560    7.1190   -2.4600 O   0  0  0  0  0  0  0  0  0  0  0  0
   -6.5620    7.8290   -2.1370 C   0  0  0  0  0  0  0  0  0  0  0  0
   -6.8160    9.0230   -3.0030 C   0  0  0  0  0  0  0  0  0  0  0  0
   -7.7340    6.9370   -1.8710 C   0  0  0  0  0  0  0  0  0  0  0  0
   -1.4200   10.0600   -0.6070 C   0  0  1  0  0  0  0  0  0  0  0  0
   -1.0230   10.6820    0.7580 C   0  0  0  0  0  0  0  0  0  0  0  0
    0.1670   11.6380    0.4850 C   0  0  0  0  0  0  0  0  0  0  0  0
    0.2000   11.7910   -1.0540 C   0  0  1  0  0  0  0  0  0  0  0  0
   -0.8950   12.8560   -1.3750 C   0  0  0  0  0  0  0  0  0  0  0  0
    1.5800   12.1730   -1.6810 C   0  0  2  0  0  0  0  0  0  0  0  0
    2.1390   13.5390   -1.2440 C   0  0  0  0  0  0  0  0  0  0  0  0
    1.7450   14.6930   -2.1040 C   0  0  0  0  0  0  0  0  0  0  0  0
    1.2130   14.6040   -3.3380 C   0  0  0  0  0  0  0  0  0  0  0  0
    1.0480   13.2440   -4.0280 C   0  0  1  0  0  0  0  0  0  0  0  0
    1.5590   13.3400   -5.4890 C   0  0  0  0  0  0  0  0  0  0  0  0
    0.8970   14.4740   -6.2670 C   0  0  0  0  0  0  0  0  0  0  0  0
    1.1320   15.8170   -5.5810 C   0  0  2  0  0  0  0  0  0  0  0  0
    2.5260   16.1320   -5.6510 O   0  0  0  0  0  0  0  0  0  0  0  0
    0.6650   15.8370   -4.0990 C   0  0  0  0  0  0  0  0  0  0  0  0
   -0.8820   15.7970   -4.0400 C   0  0  0  0  0  0  0  0  0  0  0  0
    1.0880   17.1990   -3.4840 C   0  0  0  0  0  0  0  0  0  0  0  0
    1.6500   11.9950   -3.2510 C   0  0  1  0  0  0  0  0  0  0  0  0
    3.1570   11.8200   -3.6130 C   0  0  0  0  0  0  0  0  0  0  0  0
    0.9210   10.6870   -3.7390 C   0  0  0  0  0  0  0  0  0  0  0  0
   -0.3740   10.2970   -3.0000 C   0  0  0  0  0  0  0  0  0  0  0  0
   -0.1690   10.3240   -1.4830 C   0  0  2  0  0  0  0  0  0  0  0  0
    0.9110    9.2460   -1.1270 C   0  0  0  0  0  0  0  0  0  0  0  0
   -1.5191    6.8344   -1.6463 H   0  0  0  0  0  0  0  0  0  0  0  0
   -2.6782    7.9853   -2.3937 H   0  0  0  0  0  0  0  0  0  0  0  0
   -0.9202    8.3540   -2.3937 H   0  0  0  0  0  0  0  0  0  0  0  0
   -1.2687    8.0842    0.2524 H   0  0  0  0  0  0  0  0  0  0  0  0
   -3.5471    7.5791    0.4388 H   0  0  0  0  0  0  0  0  0  0  0  0
   -3.4316    9.3673    0.8034 H   0  0  0  0  0  0  0  0  0  0  0  0
   -4.9256    9.8112   -0.7614 H   0  0  0  0  0  0  0  0  0  0  0  0
   -3.8659    9.0152   -1.9988 H   0  0  0  0  0  0  0  0  0  0  0  0
   -5.3035    7.5358   -0.1165 H   0  0  0  0  0  0  0  0  0  0  0  0
   -7.0031    9.9024   -2.3693 H   0  0  0  0  0  0  0  0  0  0  0  0
   -5.9373    9.2089   -3.6381 H   0  0  0  0  0  0  0  0  0  0  0  0
   -7.6943    8.8352   -3.6381 H   0  0  0  0  0  0  0  0  0  0  0  0
   -7.8745    6.8301   -0.7853 H   0  0  0  0  0  0  0  0  0  0  0  0
   -8.6384    7.3773   -2.3161 H   0  0  0  0  0  0  0  0  0  0  0  0
   -7.5505    5.9480   -2.3161 H   0  0  0  0  0  0  0  0  0  0  0  0
   -2.3097   10.5042   -1.0773 H   0  0  0  0  0  0  0  0  0  0  0  0
   -1.8703   11.2427    1.1795 H   0  0  0  0  0  0  0  0  0  0  0  0
   -0.7447    9.9016    1.4816 H   0  0  0  0  0  0  0  0  0  0  0  0
    0.0014   12.6120    0.9685 H   0  0  0  0  0  0  0  0  0  0  0  0
    1.1147   11.2492    0.8858 H   0  0  0  0  0  0  0  0  0  0  0  0
   -1.3051   13.2549   -0.4355 H   0  0  0  0  0  0  0  0  0  0  0  0
   -0.4496   13.6757   -1.9579 H   0  0  0  0  0  0  0  0  0  0  0  0
   -1.7020   12.3880   -1.9579 H   0  0  0  0  0  0  0  0  0  0  0  0
    2.2540   11.4210   -1.2449 H   0  0  0  0  0  0  0  0  0  0  0  0
    1.7850   13.7401   -0.2221 H   0  0  0  0  0  0  0  0  0  0  0  0
    3.2333   13.4597   -1.3233 H   0  0  0  0  0  0  0  0  0  0  0  0
    1.9024   15.7021   -1.6954 H   0  0  0  0  0  0  0  0  0  0  0  0
   -0.0308   13.0289   -4.0235 H   0  0  0  0  0  0  0  0  0  0  0  0
    2.6455   13.5112   -5.4721 H   0  0  0  0  0  0  0  0  0  0  0  0
    1.3058   12.3962   -5.9941 H   0  0  0  0  0  0  0  0  0  0  0  0
    1.3203   14.5093   -7.2817 H   0  0  0  0  0  0  0  0  0  0  0  0
   -0.1860   14.2858   -6.3079 H   0  0  0  0  0  0  0  0  0  0  0  0
    0.5280   16.5688   -6.1101 H   0  0  0  0  0  0  0  0  0  0  0  0
    3.0170   15.3830   -5.2720 H   0  0  0  0  0  0  0  0  0  0  0  0
   -1.2088   15.7886   -2.9897 H   0  0  0  0  0  0  0  0  0  0  0  0
   -1.2912   16.6849   -4.5442 H   0  0  0  0  0  0  0  0  0  0  0  0
   -1.2448   14.8892   -4.5442 H   0  0  0  0  0  0  0  0  0  0  0  0
    1.0661   17.1284   -2.3865 H   0  0  0  0  0  0  0  0  0  0  0  0
    2.1065   17.4503   -3.8150 H   0  0  0  0  0  0  0  0  0  0  0  0
    0.3910   17.9830   -3.8150 H   0  0  0  0  0  0  0  0  0  0  0  0
    3.7504   11.7511   -2.6893 H   0  0  0  0  0  0  0  0  0  0  0  0
    3.2881   10.9006   -4.2025 H   0  0  0  0  0  0  0  0  0  0  0  0
    3.4953   12.6849   -4.2025 H   0  0  0  0  0  0  0  0  0  0  0  0
    0.6701   10.8224   -4.8014 H   0  0  0  0  0  0  0  0  0  0  0  0
    1.6276    9.8695   -3.5330 H   0  0  0  0  0  0  0  0  0  0  0  0
   -1.1694   11.0079   -3.2683 H   0  0  0  0  0  0  0  0  0  0  0  0
   -0.6537    9.2757   -3.2979 H   0  0  0  0  0  0  0  0  0  0  0  0
    0.9970    9.1602   -0.0337 H   0  0  0  0  0  0  0  0  0  0  0  0
    0.6126    8.2748   -1.5487 H   0  0  0  0  0  0  0  0  0  0  0  0
    1.8816    9.5462   -1.5487 H   0  0  0  0  0  0  0  0  0  0  0  0
  1  2  1  0
  2  3  1  0
  3  4  1  0
  4  5  1  0
  5  6  1  0
  6  7  1  0
  7  8  1  0
  7  9  1  0
  2 10  1  0
 10 11  1  0
 11 12  1  0
 12 13  1  0
 13 14  1  1
 13 15  1  0
 15 16  1  0
 16 17  1  0
 17 18  2  0
 18 19  1  0
 19 20  1  0
 20 21  1  0
 21 22  1  0
 22 23  1  0
 22 24  1  0
 24 25  1  0
 24 26  1  0
 19 27  1  0
 27 28  1  6
 27 29  1  0
 29 30  1  0
 30 31  1  0
 31 32  1  6
  7  5  1  0
 31 10  1  0
 31 13  1  0
 27 15  1  0
 24 18  1  0
  1 33  1  0
  1 34  1  0
  1 35  1  0
  2 36  1  1
  3 37  1  0
  3 38  1  0
  4 39  1  0
  4 40  1  0
  5 41  1  1
  8 42  1  0
  8 43  1  0
  8 44  1  0
  9 45  1  0
  9 46  1  0
  9 47  1  0
 10 48  1  6
 11 49  1  0
 11 50  1  0
 12 51  1  0
 12 52  1  0
 14 53  1  0
 14 54  1  0
 14 55  1  0
 15 56  1  1
 16 57  1  0
 16 58  1  0
 17 59  1  0
 19 60  1  6
 20 61  1  0
 20 62  1  0
 21 63  1  0
 21 64  1  0
 22 65  1  6
 23 66  1  0
 25 67  1  0
 25 68  1  0
 25 69  1  0
 26 70  1  0
 26 71  1  0
 26 72  1  0
 28 73  1  0
 28 74  1  0
 28 75  1  0
 29 76  1  0
 29 77  1  0
 30 78  1  0
 30 79  1  0
 32 80  1  0
 32 81  1  0
 32 82  1  0
M  END
>  <meeko>  (17) 
{"is_sidechain": [false], "intermolecular_energy": 2.731, "internal_energy": -0.839}

$$$$
EPH_relaxed_0001_pdb2pqr_Repair_106_r2_0001_out
     RDKit          3D

 82 86  0  0  0  0  0  0  0  0999 V2000
    2.5410   19.1760   -1.1320 C   0  0  0  0  0  0  0  0  0  0  0  0
    2.2750   18.1400   -2.2270 C   0  0  2  0  0  0  0  0  0  0  0  0
    0.8240   18.2000   -2.7450 C   0  0  0  0  0  0  0  0  0  0  0  0
    0.0580   19.4430   -2.2840 C   0  0  0  0  0  0  0  0  0  0  0  0
   -1.2110   19.0790   -1.5730 C   0  0  2  0  0  0  0  0  0  0  0  0
   -2.0390   20.1940   -1.2190 O   0  0  0  0  0  0  0  0  0  0  0  0
   -1.4910   19.4390   -0.1260 C   0  0  0  0  0  0  0  0  0  0  0  0
   -0.4960   20.1950    0.6970 C   0  0  0  0  0  0  0  0  0  0  0  0
   -2.5100   18.6400    0.6250 C   0  0  0  0  0  0  0  0  0  0  0  0
    2.5840   16.7410   -1.7050 C   0  0  1  0  0  0  0  0  0  0  0  0
    3.5030   16.7600   -0.4550 C   0  0  0  0  0  0  0  0  0  0  0  0
    3.0530   15.5830    0.4490 C   0  0  0  0  0  0  0  0  0  0  0  0
    2.1250   14.7340   -0.4510 C   0  0  1  0  0  0  0  0  0  0  0  0
    3.0910   13.8650   -1.3160 C   0  0  0  0  0  0  0  0  0  0  0  0
    1.0620   13.8550    0.2860 C   0  0  2  0  0  0  0  0  0  0  0  0
    1.6410   12.7690    1.2090 C   0  0  0  0  0  0  0  0  0  0  0  0
    1.8780   11.4430    0.5650 C   0  0  0  0  0  0  0  0  0  0  0  0
    1.3770   11.0490   -0.6210 C   0  0  0  0  0  0  0  0  0  0  0  0
    0.3990   11.9400   -1.3970 C   0  0  1  0  0  0  0  0  0  0  0  0
   -0.7980   11.0860   -1.8910 C   0  0  0  0  0  0  0  0  0  0  0  0
   -0.3550    9.8670   -2.6950 C   0  0  0  0  0  0  0  0  0  0  0  0
    0.5700    8.9760   -1.8690 C   0  0  2  0  0  0  0  0  0  0  0  0
   -0.1790    8.4110   -0.7880 O   0  0  0  0  0  0  0  0  0  0  0  0
    1.8080    9.7310   -1.3090 C   0  0  0  0  0  0  0  0  0  0  0  0
    2.7720   10.0810   -2.4700 C   0  0  0  0  0  0  0  0  0  0  0  0
    2.5810    8.7560   -0.3810 C   0  0  0  0  0  0  0  0  0  0  0  0
   -0.0640   13.2700   -0.6600 C   0  0  1  0  0  0  0  0  0  0  0  0
   -1.2970   12.9740    0.2470 C   0  0  0  0  0  0  0  0  0  0  0  0
   -0.5440   14.3140   -1.7350 C   0  0  0  0  0  0  0  0  0  0  0  0
    0.5340   15.2350   -2.3400 C   0  0  0  0  0  0  0  0  0  0  0  0
    1.3870   15.8750   -1.2400 C   0  0  2  0  0  0  0  0  0  0  0  0
    0.4450   16.7730   -0.3670 C   0  0  0  0  0  0  0  0  0  0  0  0
    2.4202   18.7056   -0.1450 H   0  0  0  0  0  0  0  0  0  0  0  0
    3.5669   19.5601   -1.2320 H   0  0  0  0  0  0  0  0  0  0  0  0
    1.8270   20.0068   -1.2320 H   0  0  0  0  0  0  0  0  0  0  0  0
    2.9370   18.3765   -3.0731 H   0  0  0  0  0  0  0  0  0  0  0  0
    0.8471   18.1941   -3.8447 H   0  0  0  0  0  0  0  0  0  0  0  0
    0.2984   17.3264   -2.3321 H   0  0  0  0  0  0  0  0  0  0  0  0
    0.6963   20.0222   -1.6005 H   0  0  0  0  0  0  0  0  0  0  0  0
   -0.2043   20.0343   -3.1737 H   0  0  0  0  0  0  0  0  0  0  0  0
   -1.2745   18.1280   -2.1222 H   0  0  0  0  0  0  0  0  0  0  0  0
   -0.7064   20.0352    1.7648 H   0  0  0  0  0  0  0  0  0  0  0  0
    0.5183   19.8377    0.4656 H   0  0  0  0  0  0  0  0  0  0  0  0
   -0.5684   21.2679    0.4656 H   0  0  0  0  0  0  0  0  0  0  0  0
   -2.3502   18.7653    1.7061 H   0  0  0  0  0  0  0  0  0  0  0  0
   -3.5185   18.9905    0.3604 H   0  0  0  0  0  0  0  0  0  0  0  0
   -2.4101   17.5770    0.3604 H   0  0  0  0  0  0  0  0  0  0  0  0
    3.0366   16.3032   -2.6069 H   0  0  0  0  0  0  0  0  0  0  0  0
    4.5530   16.6274   -0.7548 H   0  0  0  0  0  0  0  0  0  0  0  0
    3.4254   17.7193    0.0777 H   0  0  0  0  0  0  0  0  0  0  0  0
    3.9206   14.9927    0.7789 H   0  0  0  0  0  0  0  0  0  0  0  0
    2.5471   15.9280    1.3628 H   0  0  0  0  0  0  0  0  0  0  0  0
    3.7452   13.2765   -0.6559 H   0  0  0  0  0  0  0  0  0  0  0  0
    2.5036   13.1853   -1.9508 H   0  0  0  0  0  0  0  0  0  0  0  0
    3.7050   14.5208   -1.9508 H   0  0  0  0  0  0  0  0  0  0  0  0
    0.5735   14.5828    0.9507 H   0  0  0  0  0  0  0  0  0  0  0  0
    2.6023   13.1331    1.6005 H   0  0  0  0  0  0  0  0  0  0  0  0
    0.8838   12.5973    1.9882 H   0  0  0  0  0  0  0  0  0  0  0  0
    2.5157   10.7276    1.1050 H   0  0  0  0  0  0  0  0  0  0  0  0
    0.9615   12.3298   -2.2582 H   0  0  0  0  0  0  0  0  0  0  0  0
   -1.3707   10.7427   -1.0169 H   0  0  0  0  0  0  0  0  0  0  0  0
   -1.4087   11.7182   -2.5524 H   0  0  0  0  0  0  0  0  0  0  0  0
   -1.2427    9.2886   -2.9906 H   0  0  0  0  0  0  0  0  0  0  0  0
    0.1922   10.2126   -3.5845 H   0  0  0  0  0  0  0  0  0  0  0  0
    0.9566    8.1921   -2.5368 H   0  0  0  0  0  0  0  0  0  0  0  0
    0.3580    7.7000   -0.3990 H   0  0  0  0  0  0  0  0  0  0  0  0
    3.7308   10.4291   -2.0582 H   0  0  0  0  0  0  0  0  0  0  0  0
    2.9414    9.1870   -3.0881 H   0  0  0  0  0  0  0  0  0  0  0  0
    2.3284   10.8754   -3.0881 H   0  0  0  0  0  0  0  0  0  0  0  0
    2.3784    9.0115    0.6695 H   0  0  0  0  0  0  0  0  0  0  0  0
    2.2524    7.7248   -0.5775 H   0  0  0  0  0  0  0  0  0  0  0  0
    3.6600    8.8407   -0.5775 H   0  0  0  0  0  0  0  0  0  0  0  0
   -1.0003   13.0452    1.3038 H   0  0  0  0  0  0  0  0  0  0  0  0
   -2.0900   13.7073    0.0386 H   0  0  0  0  0  0  0  0  0  0  0  0
   -1.6707   11.9606    0.0386 H   0  0  0  0  0  0  0  0  0  0  0  0
   -1.0041   13.7527   -2.5616 H   0  0  0  0  0  0  0  0  0  0  0  0
   -1.2282   14.9868   -1.1971 H   0  0  0  0  0  0  0  0  0  0  0  0
    1.1840   14.6428   -3.0009 H   0  0  0  0  0  0  0  0  0  0  0  0
    0.0349   16.0344   -2.9073 H   0  0  0  0  0  0  0  0  0  0  0  0
    0.6428   16.5845    0.6985 H   0  0  0  0  0  0  0  0  0  0  0  0
    0.6352   17.8325   -0.5934 H   0  0  0  0  0  0  0  0  0  0  0  0
   -0.6042   16.5323   -0.5934 H   0  0  0  0  0  0  0  0  0  0  0  0
  1  2  1  0
  2  3  1  0
  3  4  1  0
  4  5  1  0
  5  6  1  0
  6  7  1  0
  7  8  1  0
  7  9  1  0
  2 10  1  0
 10 11  1  0
 11 12  1  0
 12 13  1  0
 13 14  1  6
 13 15  1  0
 15 16  1  0
 16 17  1  0
 17 18  2  0
 18 19  1  0
 19 20  1  0
 20 21  1  0
 21 22  1  0
 22 23  1  0
 22 24  1  0
 24 25  1  0
 24 26  1  0
 19 27  1  0
 27 28  1  1
 27 29  1  0
 29 30  1  0
 30 31  1  0
 31 32  1  1
  7  5  1  0
 31 10  1  0
 31 13  1  0
 27 15  1  0
 24 18  1  0
  1 33  1  0
  1 34  1  0
  1 35  1  0
  2 36  1  6
  3 37  1  0
  3 38  1  0
  4 39  1  0
  4 40  1  0
  5 41  1  6
  8 42  1  0
  8 43  1  0
  8 44  1  0
  9 45  1  0
  9 46  1  0
  9 47  1  0
 10 48  1  6
 11 49  1  0
 11 50  1  0
 12 51  1  0
 12 52  1  0
 14 53  1  0
 14 54  1  0
 14 55  1  0
 15 56  1  1
 16 57  1  0
 16 58  1  0
 17 59  1  0
 19 60  1  6
 20 61  1  0
 20 62  1  0
 21 63  1  0
 21 64  1  0
 22 65  1  6
 23 66  1  0
 25 67  1  0
 25 68  1  0
 25 69  1  0
 26 70  1  0
 26 71  1  0
 26 72  1  0
 28 73  1  0
 28 74  1  0
 28 75  1  0
 29 76  1  0
 29 77  1  0
 30 78  1  0
 30 79  1  0
 32 80  1  0
 32 81  1  0
 32 82  1  0
M  END
>  <meeko>  (18) 
{"is_sidechain": [false], "intermolecular_energy": 2.731, "internal_energy": -0.839}

$$$$
