EPH_relaxed_0001_pdb2pqr_Repair_219_r2_0001_out
     RDKit          3D

 82 86  0  0  0  0  0  0  0  0999 V2000
   -1.5890    8.5680   -1.8130 C   0  0  0  0  0  0  0  0  0  0  0  0
   -1.9980    9.1470   -0.4560 C   0  0  2  0  0  0  0  0  0  0  0  0
   -3.4870    9.5460   -0.4200 C   0  0  0  0  0  0  0  0  0  0  0  0
   -4.4400    8.3540   -0.2960 C   0  0  0  0  0  0  0  0  0  0  0  0
   -5.0760    8.0140   -1.6100 C   0  0  2  0  0  0  0  0  0  0  0  0
   -6.3410    8.6480   -1.8450 O   0  0  0  0  0  0  0  0  0  0  0  0
   -6.3600    7.2150   -1.7360 C   0  0  0  0  0  0  0  0  0  0  0  0
   -7.0840    6.7070   -0.5290 C   0  0  0  0  0  0  0  0  0  0  0  0
   -6.6440    6.5160   -3.0290 C   0  0  0  0  0  0  0  0  0  0  0  0
   -1.1280   10.3530   -0.1220 C   0  0  1  0  0  0  0  0  0  0  0  0
   -0.0540   10.0360    0.9520 C   0  0  0  0  0  0  0  0  0  0  0  0
    1.2010   10.8710    0.5900 C   0  0  0  0  0  0  0  0  0  0  0  0
    0.7060   11.8800   -0.4720 C   0  0  1  0  0  0  0  0  0  0  0  0
    0.0280   13.0230    0.3480 C   0  0  0  0  0  0  0  0  0  0  0  0
    1.7870   12.4380   -1.4540 C   0  0  2  0  0  0  0  0  0  0  0  0
    2.9150   13.2470   -0.7910 C   0  0  0  0  0  0  0  0  0  0  0  0
    2.6650   14.7150   -0.6780 C   0  0  0  0  0  0  0  0  0  0  0  0
    1.7150   15.4000   -1.3420 C   0  0  0  0  0  0  0  0  0  0  0  0
    0.8310   14.7080   -2.3870 C   0  0  1  0  0  0  0  0  0  0  0  0
    0.7530   15.5870   -3.6630 C   0  0  0  0  0  0  0  0  0  0  0  0
    0.2970   17.0120   -3.3640 C   0  0  0  0  0  0  0  0  0  0  0  0
    1.2340   17.6860   -2.3650 C   0  0  2  0  0  0  0  0  0  0  0  0
    2.5130   17.8660   -2.9820 O   0  0  0  0  0  0  0  0  0  0  0  0
    1.3990   16.8860   -1.0430 C   0  0  0  0  0  0  0  0  0  0  0  0
    0.0830   16.9490   -0.2290 C   0  0  0  0  0  0  0  0  0  0  0  0
    2.4760   17.6010   -0.1830 C   0  0  0  0  0  0  0  0  0  0  0  0
    1.1930   13.1950   -2.7100 C   0  0  1  0  0  0  0  0  0  0  0  0
    2.2850   13.1350   -3.8220 C   0  0  0  0  0  0  0  0  0  0  0  0
   -0.0780   12.4750   -3.2960 C   0  0  0  0  0  0  0  0  0  0  0  0
   -1.0480   11.8400   -2.2810 C   0  0  0  0  0  0  0  0  0  0  0  0
   -0.2930   10.9680   -1.2730 C   0  0  2  0  0  0  0  0  0  0  0  0
    0.3820    9.7970   -2.0660 C   0  0  0  0  0  0  0  0  0  0  0  0
   -0.9607    7.6785   -1.6578 H   0  0  0  0  0  0  0  0  0  0  0  0
   -2.4898    8.2865   -2.3781 H   0  0  0  0  0  0  0  0  0  0  0  0
   -1.0226    9.3229   -2.3781 H   0  0  0  0  0  0  0  0  0  0  0  0
   -1.8485    8.3602    0.2980 H   0  0  0  0  0  0  0  0  0  0  0  0
   -3.6479   10.2105    0.4417 H   0  0  0  0  0  0  0  0  0  0  0  0
   -3.7113   10.0391   -1.3774 H   0  0  0  0  0  0  0  0  0  0  0  0
   -3.8746    7.4813    0.0628 H   0  0  0  0  0  0  0  0  0  0  0  0
   -5.2377    8.6247    0.4113 H   0  0  0  0  0  0  0  0  0  0  0  0
   -4.0903    7.9064   -2.0862 H   0  0  0  0  0  0  0  0  0  0  0  0
   -6.5766    7.0630    0.3797 H   0  0  0  0  0  0  0  0  0  0  0  0
   -8.1197    7.0775   -0.5397 H   0  0  0  0  0  0  0  0  0  0  0  0
   -7.0879    5.6071   -0.5397 H   0  0  0  0  0  0  0  0  0  0  0  0
   -7.0507    5.5149   -2.8230 H   0  0  0  0  0  0  0  0  0  0  0  0
   -7.3771    7.0978   -3.6070 H   0  0  0  0  0  0  0  0  0  0  0  0
   -5.7129    6.4217   -3.6070 H   0  0  0  0  0  0  0  0  0  0  0  0
   -1.9080   11.0601    0.1968 H   0  0  0  0  0  0  0  0  0  0  0  0
   -0.4215   10.3177    1.9498 H   0  0  0  0  0  0  0  0  0  0  0  0
    0.1792    8.9612    0.9720 H   0  0  0  0  0  0  0  0  0  0  0  0
    1.5859   11.3973    1.4759 H   0  0  0  0  0  0  0  0  0  0  0  0
    2.0252   10.2448    0.2179 H   0  0  0  0  0  0  0  0  0  0  0  0
    0.1466   12.8230    1.4231 H   0  0  0  0  0  0  0  0  0  0  0  0
    0.5024   13.9838    0.0992 H   0  0  0  0  0  0  0  0  0  0  0  0
   -1.0426   13.0674    0.0992 H   0  0  0  0  0  0  0  0  0  0  0  0
    2.2604   11.5192   -1.8305 H   0  0  0  0  0  0  0  0  0  0  0  0
    3.0680   12.8491    0.2230 H   0  0  0  0  0  0  0  0  0  0  0  0
    3.7932   13.1370   -1.4443 H   0  0  0  0  0  0  0  0  0  0  0  0
    3.3117   15.2848    0.0055 H   0  0  0  0  0  0  0  0  0  0  0  0
   -0.1664   14.6213   -1.9313 H   0  0  0  0  0  0  0  0  0  0  0  0
    1.7499   15.6255   -4.1263 H   0  0  0  0  0  0  0  0  0  0  0  0
    0.0112   15.1331   -4.3366 H   0  0  0  0  0  0  0  0  0  0  0  0
    0.2903   17.5915   -4.2989 H   0  0  0  0  0  0  0  0  0  0  0  0
   -0.7123   16.9737   -2.9282 H   0  0  0  0  0  0  0  0  0  0  0  0
    0.7850   18.6523   -2.0919 H   0  0  0  0  0  0  0  0  0  0  0  0
    2.4120   17.6740   -3.9300 H   0  0  0  0  0  0  0  0  0  0  0  0
    0.3159   16.9378    0.8460 H   0  0  0  0  0  0  0  0  0  0  0  0
   -0.4579   17.8741   -0.4774 H   0  0  0  0  0  0  0  0  0  0  0  0
   -0.5438   16.0798   -0.4774 H   0  0  0  0  0  0  0  0  0  0  0  0
    2.2518   17.4521    0.8836 H   0  0  0  0  0  0  0  0  0  0  0  0
    3.4664   17.1804   -0.4116 H   0  0  0  0  0  0  0  0  0  0  0  0
    2.4729   18.6770   -0.4116 H   0  0  0  0  0  0  0  0  0  0  0  0
    3.2800   13.0803   -3.3562 H   0  0  0  0  0  0  0  0  0  0  0  0
    2.1233   12.2444   -4.4470 H   0  0  0  0  0  0  0  0  0  0  0  0
    2.2218   14.0380   -4.4470 H   0  0  0  0  0  0  0  0  0  0  0  0
   -0.6437   13.2189   -3.8761 H   0  0  0  0  0  0  0  0  0  0  0  0
    0.3147   11.6324   -3.8841 H   0  0  0  0  0  0  0  0  0  0  0  0
   -1.5771   12.6388   -1.7406 H   0  0  0  0  0  0  0  0  0  0  0  0
   -1.7622   11.2064   -2.8273 H   0  0  0  0  0  0  0  0  0  0  0  0
    0.8020    9.0683   -1.3570 H   0  0  0  0  0  0  0  0  0  0  0  0
   -0.3692    9.3018   -2.6988 H   0  0  0  0  0  0  0  0  0  0  0  0
    1.1870   10.1989   -2.6988 H   0  0  0  0  0  0  0  0  0  0  0  0
  1  2  1  0
  2  3  1  0
  3  4  1  0
  4  5  1  0
  5  6  1  0
  6  7  1  0
  7  8  1  0
  7  9  1  0
  2 10  1  0
 10 11  1  0
 11 12  1  0
 12 13  1  0
 13 14  1  1
 13 15  1  0
 15 16  1  0
 16 17  1  0
 17 18  2  0
 18 19  1  0
 19 20  1  0
 20 21  1  0
 21 22  1  0
 22 23  1  0
 22 24  1  0
 24 25  1  0
 24 26  1  0
 19 27  1  0
 27 28  1  6
 27 29  1  0
 29 30  1  0
 30 31  1  0
 31 32  1  6
  7  5  1  0
 31 10  1  0
 31 13  1  0
 27 15  1  0
 24 18  1  0
  1 33  1  0
  1 34  1  0
  1 35  1  0
  2 36  1  1
  3 37  1  0
  3 38  1  0
  4 39  1  0
  4 40  1  0
  5 41  1  6
  8 42  1  0
  8 43  1  0
  8 44  1  0
  9 45  1  0
  9 46  1  0
  9 47  1  0
 10 48  1  1
 11 49  1  0
 11 50  1  0
 12 51  1  0
 12 52  1  0
 14 53  1  0
 14 54  1  0
 14 55  1  0
 15 56  1  6
 16 57  1  0
 16 58  1  0
 17 59  1  0
 19 60  1  1
 20 61  1  0
 20 62  1  0
 21 63  1  0
 21 64  1  0
 22 65  1  1
 23 66  1  0
 25 67  1  0
 25 68  1  0
 25 69  1  0
 26 70  1  0
 26 71  1  0
 26 72  1  0
 28 73  1  0
 28 74  1  0
 28 75  1  0
 29 76  1  0
 29 77  1  0
 30 78  1  0
 30 79  1  0
 32 80  1  0
 32 81  1  0
 32 82  1  0
M  END
>  <meeko>  (1) 
{"is_sidechain": [false], "intermolecular_energy": 2.731, "internal_energy": -0.839}

$$$$
EPH_relaxed_0001_pdb2pqr_Repair_219_r2_0001_out
     RDKit          3D

 82 86  0  0  0  0  0  0  0  0999 V2000
    0.4120   18.4580   -0.0300 C   0  0  0  0  0  0  0  0  0  0  0  0
    1.4950   17.3990   -0.2490 C   0  0  2  0  0  0  0  0  0  0  0  0
    2.7120   17.9610   -1.0120 C   0  0  0  0  0  0  0  0  0  0  0  0
    3.9470   18.1690   -0.1320 C   0  0  0  0  0  0  0  0  0  0  0  0
    3.5770   18.6370    1.2420 C   0  0  2  0  0  0  0  0  0  0  0  0
    3.8080   20.0310    1.4830 O   0  0  0  0  0  0  0  0  0  0  0  0
    4.5900   19.1150    2.2650 C   0  0  0  0  0  0  0  0  0  0  0  0
    6.0540   19.1470    1.9570 C   0  0  0  0  0  0  0  0  0  0  0  0
    4.2140   19.0850    3.7140 C   0  0  0  0  0  0  0  0  0  0  0  0
    0.9130   16.2080   -1.0020 C   0  0  1  0  0  0  0  0  0  0  0  0
    0.7470   16.4840   -2.5200 C   0  0  0  0  0  0  0  0  0  0  0  0
    1.0300   15.1460   -3.2510 C   0  0  0  0  0  0  0  0  0  0  0  0
    1.0220   14.0800   -2.1310 C   0  0  1  0  0  0  0  0  0  0  0  0
   -0.4880   13.7700   -1.8830 C   0  0  0  0  0  0  0  0  0  0  0  0
    1.8400   12.7770   -2.4110 C   0  0  2  0  0  0  0  0  0  0  0  0
    1.3490   11.9430   -3.6070 C   0  0  0  0  0  0  0  0  0  0  0  0
    0.3330   10.8990   -3.2820 C   0  0  0  0  0  0  0  0  0  0  0  0
    0.0430   10.4470   -2.0470 C   0  0  0  0  0  0  0  0  0  0  0  0
    0.8380   10.9270   -0.8260 C   0  0  1  0  0  0  0  0  0  0  0  0
    1.2240    9.7070    0.0520 C   0  0  0  0  0  0  0  0  0  0  0  0
    0.0160    8.8590    0.4380 C   0  0  0  0  0  0  0  0  0  0  0  0
   -0.7150    8.3530   -0.8030 C   0  0  2  0  0  0  0  0  0  0  0  0
    0.1340    7.4320   -1.4940 O   0  0  0  0  0  0  0  0  0  0  0  0
   -1.1440    9.4930   -1.7680 C   0  0  0  0  0  0  0  0  0  0  0  0
   -2.2880   10.3160   -1.1250 C   0  0  0  0  0  0  0  0  0  0  0  0
   -1.7430    8.8390   -3.0420 C   0  0  0  0  0  0  0  0  0  0  0  0
    2.0770   11.8740   -1.1340 C   0  0  1  0  0  0  0  0  0  0  0  0
    3.3450   11.0130   -1.4260 C   0  0  0  0  0  0  0  0  0  0  0  0
    2.4050   12.7250    0.1490 C   0  0  0  0  0  0  0  0  0  0  0  0
    1.6510   14.0590    0.3090 C   0  0  0  0  0  0  0  0  0  0  0  0
    1.7230   14.8870   -0.9780 C   0  0  2  0  0  0  0  0  0  0  0  0
    3.2280   15.2330   -1.2410 C   0  0  0  0  0  0  0  0  0  0  0  0
    0.2586   18.6080    1.0489 H   0  0  0  0  0  0  0  0  0  0  0  0
    0.7274   19.4058   -0.4907 H   0  0  0  0  0  0  0  0  0  0  0  0
   -0.5284   18.1214   -0.4907 H   0  0  0  0  0  0  0  0  0  0  0  0
    1.8471   17.0766    0.7420 H   0  0  0  0  0  0  0  0  0  0  0  0
    2.9730   17.2573   -1.8162 H   0  0  0  0  0  0  0  0  0  0  0  0
    2.4215   18.9495   -1.3974 H   0  0  0  0  0  0  0  0  0  0  0  0
    4.4903   17.2161   -0.0496 H   0  0  0  0  0  0  0  0  0  0  0  0
    4.5745   18.9420   -0.5997 H   0  0  0  0  0  0  0  0  0  0  0  0
    2.7630   17.8993    1.2986 H   0  0  0  0  0  0  0  0  0  0  0  0
    6.6261   19.1595    2.8964 H   0  0  0  0  0  0  0  0  0  0  0  0
    6.3257   18.2546    1.3741 H   0  0  0  0  0  0  0  0  0  0  0  0
    6.2864   20.0504    1.3741 H   0  0  0  0  0  0  0  0  0  0  0  0
    5.1224   19.1575    4.3301 H   0  0  0  0  0  0  0  0  0  0  0  0
    3.5503   19.9330    3.9382 H   0  0  0  0  0  0  0  0  0  0  0  0
    3.6931   18.1424    3.9382 H   0  0  0  0  0  0  0  0  0  0  0  0
   -0.0290   16.0820   -0.4482 H   0  0  0  0  0  0  0  0  0  0  0  0
   -0.2774   16.8232   -2.7336 H   0  0  0  0  0  0  0  0  0  0  0  0
    1.4373   17.2717   -2.8562 H   0  0  0  0  0  0  0  0  0  0  0  0
    0.2457   14.9355   -3.9930 H   0  0  0  0  0  0  0  0  0  0  0  0
    1.9819   15.1650   -3.8019 H   0  0  0  0  0  0  0  0  0  0  0  0
   -0.6812   13.7303   -0.8008 H   0  0  0  0  0  0  0  0  0  0  0  0
   -1.1039   14.5604   -2.3367 H   0  0  0  0  0  0  0  0  0  0  0  0
   -0.7427   12.8008   -2.3367 H   0  0  0  0  0  0  0  0  0  0  0  0
    2.8222   13.1737   -2.7074 H   0  0  0  0  0  0  0  0  0  0  0  0
    0.9062   12.6310   -4.3422 H   0  0  0  0  0  0  0  0  0  0  0  0
    2.2302   11.4032   -3.9838 H   0  0  0  0  0  0  0  0  0  0  0  0
   -0.2262   10.4618   -4.1223 H   0  0  0  0  0  0  0  0  0  0  0  0
    0.1642   11.5920   -0.2659 H   0  0  0  0  0  0  0  0  0  0  0  0
    1.9314    9.0785   -0.5089 H   0  0  0  0  0  0  0  0  0  0  0  0
    1.6723   10.0917    0.9799 H   0  0  0  0  0  0  0  0  0  0  0  0
    0.3559    7.9976    1.0317 H   0  0  0  0  0  0  0  0  0  0  0  0
   -0.6766    9.4811    1.0239 H   0  0  0  0  0  0  0  0  0  0  0  0
   -1.6402    7.8635   -0.4648 H   0  0  0  0  0  0  0  0  0  0  0  0
    0.8770    7.9370   -1.8640 H   0  0  0  0  0  0  0  0  0  0  0  0
   -2.2093   10.2594   -0.0293 H   0  0  0  0  0  0  0  0  0  0  0  0
   -2.2090   11.3656   -1.4446 H   0  0  0  0  0  0  0  0  0  0  0  0
   -3.2580    9.9074   -1.4446 H   0  0  0  0  0  0  0  0  0  0  0  0
   -2.4594    8.0568   -2.7504 H   0  0  0  0  0  0  0  0  0  0  0  0
   -2.2594    9.6050   -3.6392 H   0  0  0  0  0  0  0  0  0  0  0  0
   -0.9347    8.3917   -3.6392 H   0  0  0  0  0  0  0  0  0  0  0  0
    3.8036   10.7016   -0.4759 H   0  0  0  0  0  0  0  0  0  0  0  0
    3.0582   10.1221   -2.0040 H   0  0  0  0  0  0  0  0  0  0  0  0
    4.0672   11.6082   -2.0040 H   0  0  0  0  0  0  0  0  0  0  0  0
    2.1742   12.1048    1.0277 H   0  0  0  0  0  0  0  0  0  0  0  0
    3.4642   13.0035    0.0467 H   0  0  0  0  0  0  0  0  0  0  0  0
    0.5969   13.8506    0.5444 H   0  0  0  0  0  0  0  0  0  0  0  0
    2.1208   14.6323    1.1218 H   0  0  0  0  0  0  0  0  0  0  0  0
    3.7500   15.3530   -0.2802 H   0  0  0  0  0  0  0  0  0  0  0  0
    3.6967   14.4192   -1.8137 H   0  0  0  0  0  0  0  0  0  0  0  0
    3.2942   16.1698   -1.8137 H   0  0  0  0  0  0  0  0  0  0  0  0
  1  2  1  0
  2  3  1  0
  3  4  1  0
  4  5  1  0
  5  6  1  0
  6  7  1  0
  7  8  1  0
  7  9  1  0
  2 10  1  0
 10 11  1  0
 11 12  1  0
 12 13  1  0
 13 14  1  1
 13 15  1  0
 15 16  1  0
 16 17  1  0
 17 18  2  0
 18 19  1  0
 19 20  1  0
 20 21  1  0
 21 22  1  0
 22 23  1  0
 22 24  1  0
 24 25  1  0
 24 26  1  0
 19 27  1  0
 27 28  1  6
 27 29  1  0
 29 30  1  0
 30 31  1  0
 31 32  1  6
  7  5  1  0
 31 10  1  0
 31 13  1  0
 27 15  1  0
 24 18  1  0
  1 33  1  0
  1 34  1  0
  1 35  1  0
  2 36  1  1
  3 37  1  0
  3 38  1  0
  4 39  1  0
  4 40  1  0
  5 41  1  1
  8 42  1  0
  8 43  1  0
  8 44  1  0
  9 45  1  0
  9 46  1  0
  9 47  1  0
 10 48  1  1
 11 49  1  0
 11 50  1  0
 12 51  1  0
 12 52  1  0
 14 53  1  0
 14 54  1  0
 14 55  1  0
 15 56  1  6
 16 57  1  0
 16 58  1  0
 17 59  1  0
 19 60  1  1
 20 61  1  0
 20 62  1  0
 21 63  1  0
 21 64  1  0
 22 65  1  1
 23 66  1  0
 25 67  1  0
 25 68  1  0
 25 69  1  0
 26 70  1  0
 26 71  1  0
 26 72  1  0
 28 73  1  0
 28 74  1  0
 28 75  1  0
 29 76  1  0
 29 77  1  0
 30 78  1  0
 30 79  1  0
 32 80  1  0
 32 81  1  0
 32 82  1  0
M  END
>  <meeko>  (2) 
{"is_sidechain": [false], "intermolecular_energy": 2.731, "internal_energy": -0.839}

$$$$
EPH_relaxed_0001_pdb2pqr_Repair_219_r2_0001_out
     RDKit          3D

 82 86  0  0  0  0  0  0  0  0999 V2000
    2.3150   18.0850   -2.6970 C   0  0  0  0  0  0  0  0  0  0  0  0
    0.9840   17.7300   -2.0270 C   0  0  2  0  0  0  0  0  0  0  0  0
    1.0650   17.8220   -0.4900 C   0  0  0  0  0  0  0  0  0  0  0  0
    0.6600   19.1900    0.0670 C   0  0  0  0  0  0  0  0  0  0  0  0
   -0.7970   19.2370    0.4150 C   0  0  2  0  0  0  0  0  0  0  0  0
   -1.6190   18.3230   -0.3230 O   0  0  0  0  0  0  0  0  0  0  0  0
   -1.8700   19.7200   -0.5420 C   0  0  0  0  0  0  0  0  0  0  0  0
   -1.5310   20.1910   -1.9220 C   0  0  0  0  0  0  0  0  0  0  0  0
   -3.1730   20.1940    0.0240 C   0  0  0  0  0  0  0  0  0  0  0  0
    0.5500   16.3290   -2.4430 C   0  0  1  0  0  0  0  0  0  0  0  0
    0.6150   16.1150   -3.9790 C   0  0  0  0  0  0  0  0  0  0  0  0
    1.0350   14.6410   -4.2080 C   0  0  0  0  0  0  0  0  0  0  0  0
    0.8760   13.9700   -2.8230 C   0  0  1  0  0  0  0  0  0  0  0  0
   -0.6470   13.6500   -2.7050 C   0  0  0  0  0  0  0  0  0  0  0  0
    1.7550   12.7030   -2.5640 C   0  0  2  0  0  0  0  0  0  0  0  0
    1.4720   11.5120   -3.4950 C   0  0  0  0  0  0  0  0  0  0  0  0
    0.4400   10.5510   -3.0050 C   0  0  0  0  0  0  0  0  0  0  0  0
   -0.0280   10.4800   -1.7450 C   0  0  0  0  0  0  0  0  0  0  0  0
    0.5590   11.3630   -0.6360 C   0  0  1  0  0  0  0  0  0  0  0  0
    0.8300   10.5000    0.6240 C   0  0  0  0  0  0  0  0  0  0  0  0
   -0.4050    9.7320    1.0830 C   0  0  0  0  0  0  0  0  0  0  0  0
   -0.9250    8.8220   -0.0260 C   0  0  2  0  0  0  0  0  0  0  0  0
    0.0400    7.7930   -0.2690 O   0  0  0  0  0  0  0  0  0  0  0  0
   -1.2240    9.5790   -1.3500 C   0  0  0  0  0  0  0  0  0  0  0  0
   -2.4700   10.4790   -1.1640 C   0  0  0  0  0  0  0  0  0  0  0  0
   -1.6050    8.5270   -2.4270 C   0  0  0  0  0  0  0  0  0  0  0  0
    1.8110   12.2520   -1.0480 C   0  0  1  0  0  0  0  0  0  0  0  0
    3.1260   11.4320   -0.8760 C   0  0  0  0  0  0  0  0  0  0  0  0
    1.9180   13.4760   -0.0630 C   0  0  0  0  0  0  0  0  0  0  0  0
    1.1210   14.7410   -0.4360 C   0  0  0  0  0  0  0  0  0  0  0  0
    1.3740   15.1370   -1.8940 C   0  0  2  0  0  0  0  0  0  0  0  0
    2.8940   15.4870   -2.0380 C   0  0  0  0  0  0  0  0  0  0  0  0
    3.0719   18.2869   -1.9247 H   0  0  0  0  0  0  0  0  0  0  0  0
    2.6459   17.2437   -3.3237 H   0  0  0  0  0  0  0  0  0  0  0  0
    2.1830   18.9793   -3.3237 H   0  0  0  0  0  0  0  0  0  0  0  0
    0.2379   18.4653   -2.3628 H   0  0  0  0  0  0  0  0  0  0  0  0
    0.3970   17.0607   -0.0608 H   0  0  0  0  0  0  0  0  0  0  0  0
    2.1174   17.6610   -0.2133 H   0  0  0  0  0  0  0  0  0  0  0  0
    1.2497   19.3950    0.9726 H   0  0  0  0  0  0  0  0  0  0  0  0
    0.8523   19.9466   -0.7080 H   0  0  0  0  0  0  0  0  0  0  0  0
   -0.5637   19.5019    1.4568 H   0  0  0  0  0  0  0  0  0  0  0  0
   -0.8895   21.0823   -1.8580 H   0  0  0  0  0  0  0  0  0  0  0  0
   -0.9982   19.3937   -2.4610 H   0  0  0  0  0  0  0  0  0  0  0  0
   -2.4562   20.4431   -2.4610 H   0  0  0  0  0  0  0  0  0  0  0  0
   -3.1237   20.1761    1.1227 H   0  0  0  0  0  0  0  0  0  0  0  0
   -3.3692   21.2211   -0.3175 H   0  0  0  0  0  0  0  0  0  0  0  0
   -3.9832   19.5330   -0.3175 H   0  0  0  0  0  0  0  0  0  0  0  0
   -0.4633   16.3150   -2.0152 H   0  0  0  0  0  0  0  0  0  0  0  0
   -0.3709   16.3023   -4.4295 H   0  0  0  0  0  0  0  0  0  0  0  0
    1.3327   16.8068   -4.4440 H   0  0  0  0  0  0  0  0  0  0  0  0
    0.3793   14.1611   -4.9495 H   0  0  0  0  0  0  0  0  0  0  0  0
    2.0600   14.5551   -4.5978 H   0  0  0  0  0  0  0  0  0  0  0  0
   -0.9281   13.5909   -1.6432 H   0  0  0  0  0  0  0  0  0  0  0  0
   -1.2279   14.4457   -3.1943 H   0  0  0  0  0  0  0  0  0  0  0  0
   -0.8585   12.6878   -3.1943 H   0  0  0  0  0  0  0  0  0  0  0  0
    2.7625   13.0561   -2.8289 H   0  0  0  0  0  0  0  0  0  0  0  0
    1.1334   11.9101   -4.4629 H   0  0  0  0  0  0  0  0  0  0  0  0
    2.4119   10.9439   -3.5569 H   0  0  0  0  0  0  0  0  0  0  0  0
    0.0269    9.8404   -3.7360 H   0  0  0  0  0  0  0  0  0  0  0  0
   -0.2071   12.1199   -0.4119 H   0  0  0  0  0  0  0  0  0  0  0  0
    1.6279    9.7790    0.3927 H   0  0  0  0  0  0  0  0  0  0  0  0
    1.1223   11.1798    1.4379 H   0  0  0  0  0  0  0  0  0  0  0  0
   -0.1432    9.1193    1.9582 H   0  0  0  0  0  0  0  0  0  0  0  0
   -1.1923   10.4555    1.3414 H   0  0  0  0  0  0  0  0  0  0  0  0
   -1.8806    8.3984    0.3166 H   0  0  0  0  0  0  0  0  0  0  0  0
    0.3860    7.5050    0.5930 H   0  0  0  0  0  0  0  0  0  0  0  0
   -2.6641   10.6192   -0.0904 H   0  0  0  0  0  0  0  0  0  0  0  0
   -2.2897   11.4567   -1.6347 H   0  0  0  0  0  0  0  0  0  0  0  0
   -3.3415   10.0005   -1.6347 H   0  0  0  0  0  0  0  0  0  0  0  0
   -1.9399    7.6024   -1.9341 H   0  0  0  0  0  0  0  0  0  0  0  0
   -2.4170    8.9226   -3.0549 H   0  0  0  0  0  0  0  0  0  0  0  0
   -0.7280    8.3109   -3.0549 H   0  0  0  0  0  0  0  0  0  0  0  0
    3.3382   11.2997    0.1952 H   0  0  0  0  0  0  0  0  0  0  0  0
    3.0085   10.4468   -1.3509 H   0  0  0  0  0  0  0  0  0  0  0  0
    3.9590   11.9710   -1.3509 H   0  0  0  0  0  0  0  0  0  0  0  0
    1.5666   13.1404    0.9239 H   0  0  0  0  0  0  0  0  0  0  0  0
    2.9742   13.7812   -0.0976 H   0  0  0  0  0  0  0  0  0  0  0  0
    0.0477   14.5442   -0.2974 H   0  0  0  0  0  0  0  0  0  0  0  0
    1.4476   15.5662    0.2138 H   0  0  0  0  0  0  0  0  0  0  0  0
    3.3427   15.5903   -1.0390 H   0  0  0  0  0  0  0  0  0  0  0  0
    3.4049   14.6830   -2.5881 H   0  0  0  0  0  0  0  0  0  0  0  0
    3.0018   16.4335   -2.5881 H   0  0  0  0  0  0  0  0  0  0  0  0
  1  2  1  0
  2  3  1  0
  3  4  1  0
  4  5  1  0
  5  6  1  0
  6  7  1  0
  7  8  1  0
  7  9  1  0
  2 10  1  0
 10 11  1  0
 11 12  1  0
 12 13  1  0
 13 14  1  1
 13 15  1  0
 15 16  1  0
 16 17  1  0
 17 18  2  0
 18 19  1  0
 19 20  1  0
 20 21  1  0
 21 22  1  0
 22 23  1  0
 22 24  1  0
 24 25  1  0
 24 26  1  0
 19 27  1  0
 27 28  1  6
 27 29  1  0
 29 30  1  0
 30 31  1  0
 31 32  1  1
  7  5  1  0
 31 10  1  0
 31 13  1  0
 27 15  1  0
 24 18  1  0
  1 33  1  0
  1 34  1  0
  1 35  1  0
  2 36  1  6
  3 37  1  0
  3 38  1  0
  4 39  1  0
  4 40  1  0
  5 41  1  1
  8 42  1  0
  8 43  1  0
  8 44  1  0
  9 45  1  0
  9 46  1  0
  9 47  1  0
 10 48  1  1
 11 49  1  0
 11 50  1  0
 12 51  1  0
 12 52  1  0
 14 53  1  0
 14 54  1  0
 14 55  1  0
 15 56  1  6
 16 57  1  0
 16 58  1  0
 17 59  1  0
 19 60  1  1
 20 61  1  0
 20 62  1  0
 21 63  1  0
 21 64  1  0
 22 65  1  1
 23 66  1  0
 25 67  1  0
 25 68  1  0
 25 69  1  0
 26 70  1  0
 26 71  1  0
 26 72  1  0
 28 73  1  0
 28 74  1  0
 28 75  1  0
 29 76  1  0
 29 77  1  0
 30 78  1  0
 30 79  1  0
 32 80  1  0
 32 81  1  0
 32 82  1  0
M  END
>  <meeko>  (3) 
{"is_sidechain": [false], "intermolecular_energy": 2.731, "internal_energy": -0.839}

$$$$
EPH_relaxed_0001_pdb2pqr_Repair_219_r2_0001_out
     RDKit          3D

 82 86  0  0  0  0  0  0  0  0999 V2000
    2.1840   18.0070   -2.5070 C   0  0  0  0  0  0  0  0  0  0  0  0
    0.6650   17.8670   -2.6470 C   0  0  2  0  0  0  0  0  0  0  0  0
   -0.0820   18.3610   -1.3920 C   0  0  0  0  0  0  0  0  0  0  0  0
    0.5800   17.9410   -0.0770 C   0  0  0  0  0  0  0  0  0  0  0  0
    1.1180   19.1220    0.6740 C   0  0  2  0  0  0  0  0  0  0  0  0
    2.0090   19.9550   -0.0800 O   0  0  0  0  0  0  0  0  0  0  0  0
    2.5790   19.2780    1.0520 C   0  0  0  0  0  0  0  0  0  0  0  0
    3.5940   18.2390    0.6910 C   0  0  0  0  0  0  0  0  0  0  0  0
    2.9310   20.1900    2.1860 C   0  0  0  0  0  0  0  0  0  0  0  0
    0.3020   16.4150   -2.9330 C   0  0  1  0  0  0  0  0  0  0  0  0
    0.3560   16.0710   -4.4450 C   0  0  0  0  0  0  0  0  0  0  0  0
    0.8520   14.6060   -4.5540 C   0  0  0  0  0  0  0  0  0  0  0  0
    0.7490   14.0520   -3.1140 C   0  0  1  0  0  0  0  0  0  0  0  0
   -0.7520   13.6630   -2.9400 C   0  0  0  0  0  0  0  0  0  0  0  0
    1.6990   12.8600   -2.7620 C   0  0  2  0  0  0  0  0  0  0  0  0
    1.4670   11.5790   -3.5820 C   0  0  0  0  0  0  0  0  0  0  0  0
    0.4950   10.6110   -2.9920 C   0  0  0  0  0  0  0  0  0  0  0  0
    0.0500   10.6270   -1.7220 C   0  0  0  0  0  0  0  0  0  0  0  0
    0.6040   11.6320   -0.7040 C   0  0  1  0  0  0  0  0  0  0  0  0
    0.9390   10.8980    0.6200 C   0  0  0  0  0  0  0  0  0  0  0  0
   -0.2460   10.1080    1.1670 C   0  0  0  0  0  0  0  0  0  0  0  0
   -0.7320    9.0790    0.1500 C   0  0  2  0  0  0  0  0  0  0  0  0
    0.2830    8.0850   -0.0200 O   0  0  0  0  0  0  0  0  0  0  0  0
   -1.0900    9.7020   -1.2280 C   0  0  0  0  0  0  0  0  0  0  0  0
   -2.3800   10.5480   -1.0980 C   0  0  0  0  0  0  0  0  0  0  0  0
   -1.4290    8.5410   -2.2030 C   0  0  0  0  0  0  0  0  0  0  0  0
    1.8000   12.5470   -1.2150 C   0  0  1  0  0  0  0  0  0  0  0  0
    3.1600   11.8150   -0.9970 C   0  0  0  0  0  0  0  0  0  0  0  0
    1.8550   13.8560   -0.3410 C   0  0  0  0  0  0  0  0  0  0  0  0
    0.9860   15.0390   -0.8070 C   0  0  0  0  0  0  0  0  0  0  0  0
    1.1960   15.3200   -2.2980 C   0  0  2  0  0  0  0  0  0  0  0  0
    2.6930   15.7360   -2.5010 C   0  0  0  0  0  0  0  0  0  0  0  0
    2.4532   18.0318   -1.4407 H   0  0  0  0  0  0  0  0  0  0  0  0
    2.6772   17.1505   -2.9899 H   0  0  0  0  0  0  0  0  0  0  0  0
    2.5124   18.9392   -2.9899 H   0  0  0  0  0  0  0  0  0  0  0  0
    0.3497   18.5014   -3.4885 H   0  0  0  0  0  0  0  0  0  0  0  0
   -0.1254   19.4597   -1.4236 H   0  0  0  0  0  0  0  0  0  0  0  0
   -1.0810   17.9010   -1.4104 H   0  0  0  0  0  0  0  0  0  0  0  0
   -0.1650   17.4290    0.5498 H   0  0  0  0  0  0  0  0  0  0  0  0
    1.4210   17.2728   -0.3141 H   0  0  0  0  0  0  0  0  0  0  0  0
    0.1915   19.2006    1.2618 H   0  0  0  0  0  0  0  0  0  0  0  0
    4.0175   17.8055    1.6090 H   0  0  0  0  0  0  0  0  0  0  0  0
    3.1128   17.4463    0.0993 H   0  0  0  0  0  0  0  0  0  0  0  0
    4.3977   18.7015    0.0993 H   0  0  0  0  0  0  0  0  0  0  0  0
    2.7344   19.6805    3.1409 H   0  0  0  0  0  0  0  0  0  0  0  0
    3.9965   20.4564    2.1251 H   0  0  0  0  0  0  0  0  0  0  0  0
    2.3207   21.1032    2.1251 H   0  0  0  0  0  0  0  0  0  0  0  0
   -0.7032   16.3859   -2.4871 H   0  0  0  0  0  0  0  0  0  0  0  0
   -0.6451   16.1660   -4.8909 H   0  0  0  0  0  0  0  0  0  0  0  0
    1.0285   16.7562   -4.9818 H   0  0  0  0  0  0  0  0  0  0  0  0
    0.2127   14.0294   -5.2387 H   0  0  0  0  0  0  0  0  0  0  0  0
    1.8744   14.5401   -4.9545 H   0  0  0  0  0  0  0  0  0  0  0  0
   -0.9928   13.6006   -1.8685 H   0  0  0  0  0  0  0  0  0  0  0  0
   -1.3860   14.4265   -3.4144 H   0  0  0  0  0  0  0  0  0  0  0  0
   -0.9354   12.6877   -3.4144 H   0  0  0  0  0  0  0  0  0  0  0  0
    2.6828   13.2405   -3.0740 H   0  0  0  0  0  0  0  0  0  0  0  0
    1.0938   11.8734   -4.5740 H   0  0  0  0  0  0  0  0  0  0  0  0
    2.4351   11.0577   -3.6123 H   0  0  0  0  0  0  0  0  0  0  0  0
    0.1105    9.8184   -3.6507 H   0  0  0  0  0  0  0  0  0  0  0  0
   -0.1989   12.3636   -0.5307 H   0  0  0  0  0  0  0  0  0  0  0  0
    1.7718   10.2030    0.4369 H   0  0  0  0  0  0  0  0  0  0  0  0
    1.2049   11.6608    1.3666 H   0  0  0  0  0  0  0  0  0  0  0  0
    0.0616    9.5881    2.0863 H   0  0  0  0  0  0  0  0  0  0  0  0
   -1.0676   10.8084    1.3777 H   0  0  0  0  0  0  0  0  0  0  0  0
   -1.6589    8.6369    0.5442 H   0  0  0  0  0  0  0  0  0  0  0  0
   -0.1550    7.2590   -0.2870 H   0  0  0  0  0  0  0  0  0  0  0  0
   -2.6127   10.7006   -0.0338 H   0  0  0  0  0  0  0  0  0  0  0  0
   -2.2294   11.5233   -1.5839 H   0  0  0  0  0  0  0  0  0  0  0  0
   -3.2145   10.0212   -1.5839 H   0  0  0  0  0  0  0  0  0  0  0  0
   -1.6914    7.6422   -1.6257 H   0  0  0  0  0  0  0  0  0  0  0  0
   -2.2799    8.8311   -2.8368 H   0  0  0  0  0  0  0  0  0  0  0  0
   -0.5557    8.3276   -2.8368 H   0  0  0  0  0  0  0  0  0  0  0  0
    3.3521   11.7116    0.0812 H   0  0  0  0  0  0  0  0  0  0  0  0
    3.1178   10.8177   -1.4592 H   0  0  0  0  0  0  0  0  0  0  0  0
    3.9692   12.3994   -1.4592 H   0  0  0  0  0  0  0  0  0  0  0  0
    1.5361   13.5897    0.6775 H   0  0  0  0  0  0  0  0  0  0  0  0
    2.8927   14.2121   -0.4208 H   0  0  0  0  0  0  0  0  0  0  0  0
   -0.0730   14.7985   -0.6319 H   0  0  0  0  0  0  0  0  0  0  0  0
    1.2771   15.9337   -0.2372 H   0  0  0  0  0  0  0  0  0  0  0  0
    3.1728   15.8693   -1.5202 H   0  0  0  0  0  0  0  0  0  0  0  0
    3.2191   14.9500   -3.0627 H   0  0  0  0  0  0  0  0  0  0  0  0
    2.7381   16.6807   -3.0627 H   0  0  0  0  0  0  0  0  0  0  0  0
  1  2  1  0
  2  3  1  0
  3  4  1  0
  4  5  1  0
  5  6  1  0
  6  7  1  0
  7  8  1  0
  7  9  1  0
  2 10  1  0
 10 11  1  0
 11 12  1  0
 12 13  1  0
 13 14  1  1
 13 15  1  0
 15 16  1  0
 16 17  1  0
 17 18  2  0
 18 19  1  0
 19 20  1  0
 20 21  1  0
 21 22  1  0
 22 23  1  0
 22 24  1  0
 24 25  1  0
 24 26  1  0
 19 27  1  0
 27 28  1  6
 27 29  1  0
 29 30  1  0
 30 31  1  0
 31 32  1  1
  7  5  1  0
 31 10  1  0
 31 13  1  0
 27 15  1  0
 24 18  1  0
  1 33  1  0
  1 34  1  0
  1 35  1  0
  2 36  1  6
  3 37  1  0
  3 38  1  0
  4 39  1  0
  4 40  1  0
  5 41  1  1
  8 42  1  0
  8 43  1  0
  8 44  1  0
  9 45  1  0
  9 46  1  0
  9 47  1  0
 10 48  1  1
 11 49  1  0
 11 50  1  0
 12 51  1  0
 12 52  1  0
 14 53  1  0
 14 54  1  0
 14 55  1  0
 15 56  1  6
 16 57  1  0
 16 58  1  0
 17 59  1  0
 19 60  1  1
 20 61  1  0
 20 62  1  0
 21 63  1  0
 21 64  1  0
 22 65  1  1
 23 66  1  0
 25 67  1  0
 25 68  1  0
 25 69  1  0
 26 70  1  0
 26 71  1  0
 26 72  1  0
 28 73  1  0
 28 74  1  0
 28 75  1  0
 29 76  1  0
 29 77  1  0
 30 78  1  0
 30 79  1  0
 32 80  1  0
 32 81  1  0
 32 82  1  0
M  END
>  <meeko>  (4) 
{"is_sidechain": [false], "intermolecular_energy": 2.731, "internal_energy": -0.839}

$$$$
EPH_relaxed_0001_pdb2pqr_Repair_219_r2_0001_out
     RDKit          3D

 82 86  0  0  0  0  0  0  0  0999 V2000
   -5.1680    5.8620   -1.5870 C   0  0  0  0  0  0  0  0  0  0  0  0
   -5.4370    7.3620   -1.7320 C   0  0  2  0  0  0  0  0  0  0  0  0
   -5.1960    8.1250   -0.4140 C   0  0  0  0  0  0  0  0  0  0  0  0
   -4.1680    9.2540   -0.5360 C   0  0  0  0  0  0  0  0  0  0  0  0
   -2.7920    8.7250   -0.8020 C   0  0  2  0  0  0  0  0  0  0  0  0
   -1.8180    9.0620    0.1950 O   0  0  0  0  0  0  0  0  0  0  0  0
   -1.6010    9.6110   -1.1150 C   0  0  0  0  0  0  0  0  0  0  0  0
   -1.7320   11.1000   -1.1810 C   0  0  0  0  0  0  0  0  0  0  0  0
   -0.4330    9.0110   -1.8340 C   0  0  0  0  0  0  0  0  0  0  0  0
   -6.8660    7.5900   -2.2110 C   0  0  1  0  0  0  0  0  0  0  0  0
   -7.1580    6.8980   -3.5690 C   0  0  0  0  0  0  0  0  0  0  0  0
   -8.6340    6.4240   -3.5210 C   0  0  0  0  0  0  0  0  0  0  0  0
   -9.2350    7.1420   -2.2900 C   0  0  1  0  0  0  0  0  0  0  0  0
   -9.5800    8.5790   -2.7930 C   0  0  0  0  0  0  0  0  0  0  0  0
  -10.4680    6.4530   -1.6220 C   0  0  2  0  0  0  0  0  0  0  0  0
  -11.7120    6.3290   -2.5180 C   0  0  0  0  0  0  0  0  0  0  0  0
  -12.6670    7.4740   -2.4450 C   0  0  0  0  0  0  0  0  0  0  0  0
  -12.6820    8.4210   -1.4880 C   0  0  0  0  0  0  0  0  0  0  0  0
  -11.7310    8.3410   -0.2870 C   0  0  1  0  0  0  0  0  0  0  0  0
  -12.5210    8.6170    1.0190 C   0  0  0  0  0  0  0  0  0  0  0  0
  -13.2900    9.9340    0.9700 C   0  0  0  0  0  0  0  0  0  0  0  0
  -14.2670    9.9510   -0.2030 C   0  0  2  0  0  0  0  0  0  0  0  0
  -15.2870    8.9760    0.0320 O   0  0  0  0  0  0  0  0  0  0  0  0
  -13.5860    9.6750   -1.5720 C   0  0  0  0  0  0  0  0  0  0  0  0
  -12.7030   10.8850   -1.9680 C   0  0  0  0  0  0  0  0  0  0  0  0
  -14.7000    9.5810   -2.6500 C   0  0  0  0  0  0  0  0  0  0  0  0
  -10.8390    7.0290   -0.1950 C   0  0  1  0  0  0  0  0  0  0  0  0
  -11.6220    5.9050    0.5500 C   0  0  0  0  0  0  0  0  0  0  0  0
   -9.5640    7.3340    0.6770 C   0  0  0  0  0  0  0  0  0  0  0  0
   -8.3370    7.9030   -0.0620 C   0  0  0  0  0  0  0  0  0  0  0  0
   -8.0110    7.0700   -1.3060 C   0  0  2  0  0  0  0  0  0  0  0  0
   -7.6380    5.6240   -0.8290 C   0  0  0  0  0  0  0  0  0  0  0  0
   -5.1209    5.5994   -0.5198 H   0  0  0  0  0  0  0  0  0  0  0  0
   -5.9789    5.2958   -2.0685 H   0  0  0  0  0  0  0  0  0  0  0  0
   -4.2109    5.6129   -2.0685 H   0  0  0  0  0  0  0  0  0  0  0  0
   -4.7281    7.7547   -2.4758 H   0  0  0  0  0  0  0  0  0  0  0  0
   -6.1514    8.5592   -0.0843 H   0  0  0  0  0  0  0  0  0  0  0  0
   -4.7933    7.3999    0.3085 H   0  0  0  0  0  0  0  0  0  0  0  0
   -4.4618    9.9155   -1.3644 H   0  0  0  0  0  0  0  0  0  0  0  0
   -4.1460    9.8018    0.4176 H   0  0  0  0  0  0  0  0  0  0  0  0
   -3.2047    7.8386   -1.3060 H   0  0  0  0  0  0  0  0  0  0  0  0
   -1.7681   11.5105   -0.1611 H   0  0  0  0  0  0  0  0  0  0  0  0
   -0.8674   11.5208   -1.7152 H   0  0  0  0  0  0  0  0  0  0  0  0
   -2.6568   11.3634   -1.7152 H   0  0  0  0  0  0  0  0  0  0  0  0
    0.2961    8.6365   -1.1004 H   0  0  0  0  0  0  0  0  0  0  0  0
   -0.7788    8.1789   -2.4649 H   0  0  0  0  0  0  0  0  0  0  0  0
    0.0419    9.7767   -2.4649 H   0  0  0  0  0  0  0  0  0  0  0  0
   -6.8782    8.6896   -2.2385 H   0  0  0  0  0  0  0  0  0  0  0  0
   -7.0154    7.6099   -4.3954 H   0  0  0  0  0  0  0  0  0  0  0  0
   -6.4762    6.0510   -3.7355 H   0  0  0  0  0  0  0  0  0  0  0  0
   -9.1656    6.7160   -4.4387 H   0  0  0  0  0  0  0  0  0  0  0  0
   -8.7183    5.3297   -3.4478 H   0  0  0  0  0  0  0  0  0  0  0  0
   -9.7390    9.2414   -1.9294 H   0  0  0  0  0  0  0  0  0  0  0  0
   -8.7487    8.9637   -3.4020 H   0  0  0  0  0  0  0  0  0  0  0  0
  -10.4954    8.5444   -3.4020 H   0  0  0  0  0  0  0  0  0  0  0  0
  -10.1075    5.4252   -1.4679 H   0  0  0  0  0  0  0  0  0  0  0  0
  -11.3724    6.2356   -3.5601 H   0  0  0  0  0  0  0  0  0  0  0  0
  -12.2630    5.4494   -2.1537 H   0  0  0  0  0  0  0  0  0  0  0  0
  -13.4227    7.5506   -3.2407 H   0  0  0  0  0  0  0  0  0  0  0  0
  -10.9794    9.1291   -0.4418 H   0  0  0  0  0  0  0  0  0  0  0  0
  -13.2363    7.7967    1.1786 H   0  0  0  0  0  0  0  0  0  0  0  0
  -11.7936    8.6853    1.8413 H   0  0  0  0  0  0  0  0  0  0  0  0
  -13.8511   10.0585    1.9079 H   0  0  0  0  0  0  0  0  0  0  0  0
  -12.5709   10.7563    0.8404 H   0  0  0  0  0  0  0  0  0  0  0  0
  -14.6920   10.9638   -0.2629 H   0  0  0  0  0  0  0  0  0  0  0  0
  -15.9110    9.0170   -0.7130 H   0  0  0  0  0  0  0  0  0  0  0  0
  -12.3378   11.3855   -1.0591 H   0  0  0  0  0  0  0  0  0  0  0  0
  -11.8467   10.5349   -2.5630 H   0  0  0  0  0  0  0  0  0  0  0  0
  -13.2977   11.5937   -2.5630 H   0  0  0  0  0  0  0  0  0  0  0  0
  -15.6803    9.4983   -2.1580 H   0  0  0  0  0  0  0  0  0  0  0  0
  -14.6799   10.4840   -3.2778 H   0  0  0  0  0  0  0  0  0  0  0  0
  -14.5288    8.6941   -3.2778 H   0  0  0  0  0  0  0  0  0  0  0  0
  -11.5229    6.0473    1.6362 H   0  0  0  0  0  0  0  0  0  0  0  0
  -12.6847    5.9508    0.2696 H   0  0  0  0  0  0  0  0  0  0  0  0
  -11.2108    4.9240    0.2696 H   0  0  0  0  0  0  0  0  0  0  0  0
   -9.8549    8.0619    1.4487 H   0  0  0  0  0  0  0  0  0  0  0  0
   -9.2394    6.3569    1.0642 H   0  0  0  0  0  0  0  0  0  0  0  0
   -8.5491    8.9382   -0.3676 H   0  0  0  0  0  0  0  0  0  0  0  0
   -7.4726    7.8715    0.6176 H   0  0  0  0  0  0  0  0  0  0  0  0
   -7.6296    5.5914    0.2705 H   0  0  0  0  0  0  0  0  0  0  0  0
   -8.3810    4.9087   -1.2114 H   0  0  0  0  0  0  0  0  0  0  0  0
   -6.6417    5.3573   -1.2114 H   0  0  0  0  0  0  0  0  0  0  0  0
  1  2  1  0
  2  3  1  0
  3  4  1  0
  4  5  1  0
  5  6  1  0
  6  7  1  0
  7  8  1  0
  7  9  1  0
  2 10  1  0
 10 11  1  0
 11 12  1  0
 12 13  1  0
 13 14  1  6
 13 15  1  0
 15 16  1  0
 16 17  1  0
 17 18  2  0
 18 19  1  0
 19 20  1  0
 20 21  1  0
 21 22  1  0
 22 23  1  0
 22 24  1  0
 24 25  1  0
 24 26  1  0
 19 27  1  0
 27 28  1  1
 27 29  1  0
 29 30  1  0
 30 31  1  0
 31 32  1  1
  7  5  1  0
 31 10  1  0
 31 13  1  0
 27 15  1  0
 24 18  1  0
  1 33  1  0
  1 34  1  0
  1 35  1  0
  2 36  1  6
  3 37  1  0
  3 38  1  0
  4 39  1  0
  4 40  1  0
  5 41  1  6
  8 42  1  0
  8 43  1  0
  8 44  1  0
  9 45  1  0
  9 46  1  0
  9 47  1  0
 10 48  1  6
 11 49  1  0
 11 50  1  0
 12 51  1  0
 12 52  1  0
 14 53  1  0
 14 54  1  0
 14 55  1  0
 15 56  1  1
 16 57  1  0
 16 58  1  0
 17 59  1  0
 19 60  1  6
 20 61  1  0
 20 62  1  0
 21 63  1  0
 21 64  1  0
 22 65  1  6
 23 66  1  0
 25 67  1  0
 25 68  1  0
 25 69  1  0
 26 70  1  0
 26 71  1  0
 26 72  1  0
 28 73  1  0
 28 74  1  0
 28 75  1  0
 29 76  1  0
 29 77  1  0
 30 78  1  0
 30 79  1  0
 32 80  1  0
 32 81  1  0
 32 82  1  0
M  END
>  <meeko>  (5) 
{"is_sidechain": [false], "intermolecular_energy": 2.731, "internal_energy": -0.839}

$$$$
EPH_relaxed_0001_pdb2pqr_Repair_219_r2_0001_out
     RDKit          3D

 82 86  0  0  0  0  0  0  0  0999 V2000
    0.4280    8.8680   -2.4910 C   0  0  0  0  0  0  0  0  0  0  0  0
    1.1880   10.0240   -3.1480 C   0  0  2  0  0  0  0  0  0  0  0  0
    2.6810   10.0310   -2.7630 C   0  0  0  0  0  0  0  0  0  0  0  0
    3.5950   10.5960   -3.8530 C   0  0  0  0  0  0  0  0  0  0  0  0
    4.9880   10.8200   -3.3470 C   0  0  2  0  0  0  0  0  0  0  0  0
    5.5980   12.0380   -3.7930 O   0  0  0  0  0  0  0  0  0  0  0  0
    6.2130   10.8200   -4.2420 C   0  0  0  0  0  0  0  0  0  0  0  0
    6.1020   10.5900   -5.7170 C   0  0  0  0  0  0  0  0  0  0  0  0
    7.5510   10.5570   -3.6240 C   0  0  0  0  0  0  0  0  0  0  0  0
    0.5450   11.3520   -2.7650 C   0  0  1  0  0  0  0  0  0  0  0  0
   -0.8330   11.1720   -2.0750 C   0  0  0  0  0  0  0  0  0  0  0  0
   -0.9530   12.2990   -1.0170 C   0  0  0  0  0  0  0  0  0  0  0  0
    0.1950   13.2770   -1.3560 C   0  0  1  0  0  0  0  0  0  0  0  0
   -0.3540   14.1480   -2.5290 C   0  0  0  0  0  0  0  0  0  0  0  0
    0.7210   14.1610   -0.1780 C   0  0  2  0  0  0  0  0  0  0  0  0
   -0.3130   15.1280    0.4240 C   0  0  0  0  0  0  0  0  0  0  0  0
   -0.3580   16.4830   -0.2010 C   0  0  0  0  0  0  0  0  0  0  0  0
    0.5850   17.0040   -1.0080 C   0  0  0  0  0  0  0  0  0  0  0  0
    1.8880   16.2450   -1.2890 C   0  0  1  0  0  0  0  0  0  0  0  0
    3.0920   17.2130   -1.1440 C   0  0  0  0  0  0  0  0  0  0  0  0
    2.9460   18.4610   -2.0090 C   0  0  0  0  0  0  0  0  0  0  0  0
    1.6680   19.2200   -1.6600 C   0  0  2  0  0  0  0  0  0  0  0  0
    1.7900   19.7430   -0.3340 O   0  0  0  0  0  0  0  0  0  0  0  0
    0.3890   18.3430   -1.7610 C   0  0  0  0  0  0  0  0  0  0  0  0
    0.0910   18.0260   -3.2470 C   0  0  0  0  0  0  0  0  0  0  0  0
   -0.8100   19.1870   -1.2480 C   0  0  0  0  0  0  0  0  0  0  0  0
    2.0910   14.8930   -0.4790 C   0  0  1  0  0  0  0  0  0  0  0  0
    2.7480   15.1940    0.9030 C   0  0  0  0  0  0  0  0  0  0  0  0
    3.1030   13.9730   -1.2600 C   0  0  0  0  0  0  0  0  0  0  0  0
    2.5070   13.0360   -2.3280 C   0  0  0  0  0  0  0  0  0  0  0  0
    1.3150   12.2540   -1.7680 C   0  0  2  0  0  0  0  0  0  0  0  0
    1.8410   11.3510   -0.6000 C   0  0  0  0  0  0  0  0  0  0  0  0
    0.4905    8.9630   -1.3969 H   0  0  0  0  0  0  0  0  0  0  0  0
   -0.6266    8.8988   -2.8021 H   0  0  0  0  0  0  0  0  0  0  0  0
    0.8743    7.9120   -2.8021 H   0  0  0  0  0  0  0  0  0  0  0  0
    1.1291    9.8824   -4.2373 H   0  0  0  0  0  0  0  0  0  0  0  0
    2.8030   10.6419   -1.8564 H   0  0  0  0  0  0  0  0  0  0  0  0
    2.9774    8.9834   -2.6062 H   0  0  0  0  0  0  0  0  0  0  0  0
    3.6304    9.8857   -4.6921 H   0  0  0  0  0  0  0  0  0  0  0  0
    3.1868   11.5656   -4.1744 H   0  0  0  0  0  0  0  0  0  0  0  0
    4.7584   10.2906   -2.4105 H   0  0  0  0  0  0  0  0  0  0  0  0
    5.6307    9.6133   -5.9014 H   0  0  0  0  0  0  0  0  0  0  0  0
    5.4880   11.3842   -6.1668 H   0  0  0  0  0  0  0  0  0  0  0  0
    7.1058   10.6035   -6.1668 H   0  0  0  0  0  0  0  0  0  0  0  0
    7.4586   10.5752   -2.5280 H   0  0  0  0  0  0  0  0  0  0  0  0
    7.9155    9.5700   -3.9449 H   0  0  0  0  0  0  0  0  0  0  0  0
    8.2620   11.3326   -3.9449 H   0  0  0  0  0  0  0  0  0  0  0  0
    0.5087   11.8309   -3.7546 H   0  0  0  0  0  0  0  0  0  0  0  0
   -1.6418   11.2595   -2.8153 H   0  0  0  0  0  0  0  0  0  0  0  0
   -0.9141   10.1799   -1.6068 H   0  0  0  0  0  0  0  0  0  0  0  0
   -1.9278   12.8026   -1.0952 H   0  0  0  0  0  0  0  0  0  0  0  0
   -0.8831   11.9146    0.0113 H   0  0  0  0  0  0  0  0  0  0  0  0
   -0.8986   15.0120   -2.1204 H   0  0  0  0  0  0  0  0  0  0  0  0
    0.4846   14.5018   -3.1466 H   0  0  0  0  0  0  0  0  0  0  0  0
   -1.0350   13.5440   -3.1466 H   0  0  0  0  0  0  0  0  0  0  0  0
    0.9232   13.4152    0.6049 H   0  0  0  0  0  0  0  0  0  0  0  0
   -1.3080   14.6712    0.3174 H   0  0  0  0  0  0  0  0  0  0  0  0
   -0.0102   15.2850    1.4698 H   0  0  0  0  0  0  0  0  0  0  0  0
   -1.2362   17.1087    0.0164 H   0  0  0  0  0  0  0  0  0  0  0  0
    1.8164   15.8911   -2.3280 H   0  0  0  0  0  0  0  0  0  0  0  0
    3.1721   17.5210   -0.0911 H   0  0  0  0  0  0  0  0  0  0  0  0
    3.9930   16.6780   -1.4787 H   0  0  0  0  0  0  0  0  0  0  0  0
    3.8121   19.1182   -1.8419 H   0  0  0  0  0  0  0  0  0  0  0  0
    2.8948   18.1532   -3.0638 H   0  0  0  0  0  0  0  0  0  0  0  0
    1.5525   20.0290   -2.3963 H   0  0  0  0  0  0  0  0  0  0  0  0
    2.4730   20.4340   -0.3510 H   0  0  0  0  0  0  0  0  0  0  0  0
   -0.6613   17.2257   -3.3075 H   0  0  0  0  0  0  0  0  0  0  0  0
   -0.2931   18.9287   -3.7446 H   0  0  0  0  0  0  0  0  0  0  0  0
    1.0157   17.6984   -3.7446 H   0  0  0  0  0  0  0  0  0  0  0  0
   -0.8129   19.1891   -0.1480 H   0  0  0  0  0  0  0  0  0  0  0  0
   -0.7161   20.2192   -1.6164 H   0  0  0  0  0  0  0  0  0  0  0  0
   -1.7500   18.7504   -1.6164 H   0  0  0  0  0  0  0  0  0  0  0  0
    2.0670   14.8820    1.7085 H   0  0  0  0  0  0  0  0  0  0  0  0
    3.6943   14.6396    0.9876 H   0  0  0  0  0  0  0  0  0  0  0  0
    2.9461   16.2727    0.9876 H   0  0  0  0  0  0  0  0  0  0  0  0
    3.8305   14.6286   -1.7609 H   0  0  0  0  0  0  0  0  0  0  0  0
    3.5324   13.3055   -0.4984 H   0  0  0  0  0  0  0  0  0  0  0  0
    2.1721   13.6363   -3.1868 H   0  0  0  0  0  0  0  0  0  0  0  0
    3.2821   12.3195   -2.6377 H   0  0  0  0  0  0  0  0  0  0  0  0
    1.5750   11.8076    0.3648 H   0  0  0  0  0  0  0  0  0  0  0  0
    1.3825   10.3537   -0.6725 H   0  0  0  0  0  0  0  0  0  0  0  0
    2.9347   11.2579   -0.6725 H   0  0  0  0  0  0  0  0  0  0  0  0
  1  2  1  0
  2  3  1  0
  3  4  1  0
  4  5  1  0
  5  6  1  0
  6  7  1  0
  7  8  1  0
  7  9  1  0
  2 10  1  0
 10 11  1  0
 11 12  1  0
 12 13  1  0
 13 14  1  6
 13 15  1  0
 15 16  1  0
 16 17  1  0
 17 18  2  0
 18 19  1  0
 19 20  1  0
 20 21  1  0
 21 22  1  0
 22 23  1  0
 22 24  1  0
 24 25  1  0
 24 26  1  0
 19 27  1  0
 27 28  1  1
 27 29  1  0
 29 30  1  0
 30 31  1  0
 31 32  1  1
  7  5  1  0
 31 10  1  0
 31 13  1  0
 27 15  1  0
 24 18  1  0
  1 33  1  0
  1 34  1  0
  1 35  1  0
  2 36  1  6
  3 37  1  0
  3 38  1  0
  4 39  1  0
  4 40  1  0
  5 41  1  1
  8 42  1  0
  8 43  1  0
  8 44  1  0
  9 45  1  0
  9 46  1  0
  9 47  1  0
 10 48  1  6
 11 49  1  0
 11 50  1  0
 12 51  1  0
 12 52  1  0
 14 53  1  0
 14 54  1  0
 14 55  1  0
 15 56  1  1
 16 57  1  0
 16 58  1  0
 17 59  1  0
 19 60  1  6
 20 61  1  0
 20 62  1  0
 21 63  1  0
 21 64  1  0
 22 65  1  6
 23 66  1  0
 25 67  1  0
 25 68  1  0
 25 69  1  0
 26 70  1  0
 26 71  1  0
 26 72  1  0
 28 73  1  0
 28 74  1  0
 28 75  1  0
 29 76  1  0
 29 77  1  0
 30 78  1  0
 30 79  1  0
 32 80  1  0
 32 81  1  0
 32 82  1  0
M  END
>  <meeko>  (6) 
{"is_sidechain": [false], "intermolecular_energy": 2.731, "internal_energy": -0.839}

$$$$
EPH_relaxed_0001_pdb2pqr_Repair_219_r2_0001_out
     RDKit          3D

 82 86  0  0  0  0  0  0  0  0999 V2000
    3.9230   17.7890    0.5340 C   0  0  0  0  0  0  0  0  0  0  0  0
    2.7330   18.3360   -0.2580 C   0  0  2  0  0  0  0  0  0  0  0  0
    2.0500   19.5170    0.4620 C   0  0  0  0  0  0  0  0  0  0  0  0
    0.6810   19.1690    1.0510 C   0  0  0  0  0  0  0  0  0  0  0  0
   -0.4270   19.8880    0.3410 C   0  0  2  0  0  0  0  0  0  0  0  0
   -1.5690   20.1820    1.1570 O   0  0  0  0  0  0  0  0  0  0  0  0
   -1.7850   19.2690    0.0680 C   0  0  0  0  0  0  0  0  0  0  0  0
   -2.1080   17.8730    0.4990 C   0  0  0  0  0  0  0  0  0  0  0  0
   -2.6200   19.8370   -1.0370 C   0  0  0  0  0  0  0  0  0  0  0  0
    1.7210   17.2250   -0.5110 C   0  0  1  0  0  0  0  0  0  0  0  0
    0.5450   17.6810   -1.4140 C   0  0  0  0  0  0  0  0  0  0  0  0
    0.1490   16.4600   -2.2830 C   0  0  0  0  0  0  0  0  0  0  0  0
    0.8740   15.2620   -1.6270 C   0  0  1  0  0  0  0  0  0  0  0  0
   -0.0310   14.8570   -0.4220 C   0  0  0  0  0  0  0  0  0  0  0  0
    1.1760   14.0430   -2.5580 C   0  0  2  0  0  0  0  0  0  0  0  0
   -0.0650   13.3440   -3.1410 C   0  0  0  0  0  0  0  0  0  0  0  0
   -0.6110   12.2240   -2.3190 C   0  0  0  0  0  0  0  0  0  0  0  0
    0.0330   11.6080   -1.3100 C   0  0  0  0  0  0  0  0  0  0  0  0
    1.4860   11.9650   -0.9680 C   0  0  1  0  0  0  0  0  0  0  0  0
    2.3080   10.6640   -0.7780 C   0  0  0  0  0  0  0  0  0  0  0  0
    1.6830    9.7210    0.2460 C   0  0  0  0  0  0  0  0  0  0  0  0
    0.2600    9.3430   -0.1590 C   0  0  2  0  0  0  0  0  0  0  0  0
    0.3140    8.5540   -1.3510 O   0  0  0  0  0  0  0  0  0  0  0  0
   -0.6600   10.5750   -0.3880 C   0  0  0  0  0  0  0  0  0  0  0  0
   -0.9620   11.2580    0.9690 C   0  0  0  0  0  0  0  0  0  0  0  0
   -2.0220   10.0600   -0.9270 C   0  0  0  0  0  0  0  0  0  0  0  0
    2.1940   12.9970   -1.9470 C   0  0  1  0  0  0  0  0  0  0  0  0
    2.8290   12.2380   -3.1520 C   0  0  0  0  0  0  0  0  0  0  0  0
    3.3830   13.6950   -1.1860 C   0  0  0  0  0  0  0  0  0  0  0  0
    3.0430   14.9640   -0.3810 C   0  0  0  0  0  0  0  0  0  0  0  0
    2.2300   15.9490   -1.2260 C   0  0  2  0  0  0  0  0  0  0  0  0
    3.1240   16.3910   -2.4350 C   0  0  0  0  0  0  0  0  0  0  0  0
    3.7205   17.8821    1.6112 H   0  0  0  0  0  0  0  0  0  0  0  0
    4.0768   16.7298    0.2800 H   0  0  0  0  0  0  0  0  0  0  0  0
    4.8270   18.3619    0.2800 H   0  0  0  0  0  0  0  0  0  0  0  0
    3.1190   18.7120   -1.2170 H   0  0  0  0  0  0  0  0  0  0  0  0
    2.7053   19.8511    1.2799 H   0  0  0  0  0  0  0  0  0  0  0  0
    1.8861   20.3017   -0.2913 H   0  0  0  0  0  0  0  0  0  0  0  0
    0.5187   18.0849    0.9595 H   0  0  0  0  0  0  0  0  0  0  0  0
    0.6720   19.4812    2.1057 H   0  0  0  0  0  0  0  0  0  0  0  0
    0.2931   20.4039   -0.3111 H   0  0  0  0  0  0  0  0  0  0  0  0
   -2.1198   17.8220    1.5978 H   0  0  0  0  0  0  0  0  0  0  0  0
   -3.0958   17.5878    0.1080 H   0  0  0  0  0  0  0  0  0  0  0  0
   -1.3458   17.1829    0.1080 H   0  0  0  0  0  0  0  0  0  0  0  0
   -3.4575   20.4067   -0.6080 H   0  0  0  0  0  0  0  0  0  0  0  0
   -2.0029   20.5035   -1.6575 H   0  0  0  0  0  0  0  0  0  0  0  0
   -3.0132   19.0182   -1.6575 H   0  0  0  0  0  0  0  0  0  0  0  0
    1.4435   16.9896    0.5271 H   0  0  0  0  0  0  0  0  0  0  0  0
   -0.3073   17.9977   -0.7949 H   0  0  0  0  0  0  0  0  0  0  0  0
    0.8378   18.5349   -2.0426 H   0  0  0  0  0  0  0  0  0  0  0  0
   -0.9406   16.3099   -2.2681 H   0  0  0  0  0  0  0  0  0  0  0  0
    0.4304   16.5906   -3.3383 H   0  0  0  0  0  0  0  0  0  0  0  0
    0.4873   15.0890    0.5201 H   0  0  0  0  0  0  0  0  0  0  0  0
   -0.9760   15.4181   -0.4683 H   0  0  0  0  0  0  0  0  0  0  0  0
   -0.2423   13.7785   -0.4683 H   0  0  0  0  0  0  0  0  0  0  0  0
    1.6806   14.5183   -3.4121 H   0  0  0  0  0  0  0  0  0  0  0  0
   -0.8572   14.0984   -3.2565 H   0  0  0  0  0  0  0  0  0  0  0  0
    0.2574   12.8946   -4.0918 H   0  0  0  0  0  0  0  0  0  0  0  0
   -1.6255   11.8722   -2.5580 H   0  0  0  0  0  0  0  0  0  0  0  0
    1.4477   12.5231   -0.0209 H   0  0  0  0  0  0  0  0  0  0  0  0
    2.3716   10.1428   -1.7446 H   0  0  0  0  0  0  0  0  0  0  0  0
    3.3029   10.9492   -0.4055 H   0  0  0  0  0  0  0  0  0  0  0  0
    2.2927    8.8080    0.3141 H   0  0  0  0  0  0  0  0  0  0  0  0
    1.6474   10.2325    1.2192 H   0  0  0  0  0  0  0  0  0  0  0  0
   -0.1798    8.7744    0.6737 H   0  0  0  0  0  0  0  0  0  0  0  0
   -0.3080    8.9430   -1.9890 H   0  0  0  0  0  0  0  0  0  0  0  0
   -0.6661   10.5887    1.7903 H   0  0  0  0  0  0  0  0  0  0  0  0
   -0.3958   12.1984    1.0402 H   0  0  0  0  0  0  0  0  0  0  0  0
   -2.0386   11.4720    1.0402 H   0  0  0  0  0  0  0  0  0  0  0  0
   -2.6804    9.8111   -0.0817 H   0  0  0  0  0  0  0  0  0  0  0  0
   -2.4929   10.8421   -1.5406 H   0  0  0  0  0  0  0  0  0  0  0  0
   -1.8576    9.1620   -1.5406 H   0  0  0  0  0  0  0  0  0  0  0  0
    3.4926   11.4448   -2.7772 H   0  0  0  0  0  0  0  0  0  0  0  0
    2.0323   11.7906   -3.7645 H   0  0  0  0  0  0  0  0  0  0  0  0
    3.4100   12.9432   -3.7645 H   0  0  0  0  0  0  0  0  0  0  0  0
    3.8068   12.9602   -0.4856 H   0  0  0  0  0  0  0  0  0  0  0  0
    4.0721   14.0307   -1.9750 H   0  0  0  0  0  0  0  0  0  0  0  0
    2.4564   14.6811    0.5055 H   0  0  0  0  0  0  0  0  0  0  0  0
    3.9827   15.4514   -0.0821 H   0  0  0  0  0  0  0  0  0  0  0  0
    4.0503   16.8490   -2.0579 H   0  0  0  0  0  0  0  0  0  0  0  0
    3.3726   15.5120   -3.0478 H   0  0  0  0  0  0  0  0  0  0  0  0
    2.5765   17.1222   -3.0478 H   0  0  0  0  0  0  0  0  0  0  0  0
  1  2  1  0
  2  3  1  0
  3  4  1  0
  4  5  1  0
  5  6  1  0
  6  7  1  0
  7  8  1  0
  7  9  1  0
  2 10  1  0
 10 11  1  0
 11 12  1  0
 12 13  1  0
 13 14  1  1
 13 15  1  0
 15 16  1  0
 16 17  1  0
 17 18  2  0
 18 19  1  0
 19 20  1  0
 20 21  1  0
 21 22  1  0
 22 23  1  0
 22 24  1  0
 24 25  1  0
 24 26  1  0
 19 27  1  0
 27 28  1  6
 27 29  1  0
 29 30  1  0
 30 31  1  0
 31 32  1  6
  7  5  1  0
 31 10  1  0
 31 13  1  0
 27 15  1  0
 24 18  1  0
  1 33  1  0
  1 34  1  0
  1 35  1  0
  2 36  1  6
  3 37  1  0
  3 38  1  0
  4 39  1  0
  4 40  1  0
  5 41  1  6
  8 42  1  0
  8 43  1  0
  8 44  1  0
  9 45  1  0
  9 46  1  0
  9 47  1  0
 10 48  1  1
 11 49  1  0
 11 50  1  0
 12 51  1  0
 12 52  1  0
 14 53  1  0
 14 54  1  0
 14 55  1  0
 15 56  1  6
 16 57  1  0
 16 58  1  0
 17 59  1  0
 19 60  1  1
 20 61  1  0
 20 62  1  0
 21 63  1  0
 21 64  1  0
 22 65  1  1
 23 66  1  0
 25 67  1  0
 25 68  1  0
 25 69  1  0
 26 70  1  0
 26 71  1  0
 26 72  1  0
 28 73  1  0
 28 74  1  0
 28 75  1  0
 29 76  1  0
 29 77  1  0
 30 78  1  0
 30 79  1  0
 32 80  1  0
 32 81  1  0
 32 82  1  0
M  END
>  <meeko>  (7) 
{"is_sidechain": [false], "intermolecular_energy": 2.731, "internal_energy": -0.839}

$$$$
EPH_relaxed_0001_pdb2pqr_Repair_219_r2_0001_out
     RDKit          3D

 82 86  0  0  0  0  0  0  0  0999 V2000
   -0.0620   10.4250   -3.6240 C   0  0  0  0  0  0  0  0  0  0  0  0
    0.8950   10.1740   -2.4560 C   0  0  2  0  0  0  0  0  0  0  0  0
    0.4600    8.9710   -1.5960 C   0  0  0  0  0  0  0  0  0  0  0  0
   -0.6820    8.1570   -2.2100 C   0  0  0  0  0  0  0  0  0  0  0  0
   -2.0180    8.6020   -1.6980 C   0  0  2  0  0  0  0  0  0  0  0  0
   -2.2140   10.0220   -1.6900 O   0  0  0  0  0  0  0  0  0  0  0  0
   -2.2030    9.3760   -0.4070 C   0  0  0  0  0  0  0  0  0  0  0  0
   -1.0370    9.7500    0.4530 C   0  0  0  0  0  0  0  0  0  0  0  0
   -3.5420    9.3430    0.2620 C   0  0  0  0  0  0  0  0  0  0  0  0
    0.9960   11.4240   -1.5900 C   0  0  1  0  0  0  0  0  0  0  0  0
    2.0700   11.2950   -0.4770 C   0  0  0  0  0  0  0  0  0  0  0  0
    2.6980   12.7010   -0.2960 C   0  0  0  0  0  0  0  0  0  0  0  0
    1.7490   13.6530   -1.0610 C   0  0  1  0  0  0  0  0  0  0  0  0
    0.5660   13.9160   -0.0770 C   0  0  0  0  0  0  0  0  0  0  0  0
    2.3780   14.9890   -1.5770 C   0  0  2  0  0  0  0  0  0  0  0  0
    2.9050   15.9290   -0.4780 C   0  0  0  0  0  0  0  0  0  0  0  0
    1.9180   16.9210    0.0400 C   0  0  0  0  0  0  0  0  0  0  0  0
    0.7520   17.2460   -0.5500 C   0  0  0  0  0  0  0  0  0  0  0  0
    0.3710   16.6620   -1.9170 C   0  0  1  0  0  0  0  0  0  0  0  0
   -0.1530   17.7950   -2.8370 C   0  0  0  0  0  0  0  0  0  0  0  0
   -1.2940   18.5840   -2.2010 C   0  0  0  0  0  0  0  0  0  0  0  0
   -0.8590   19.1980   -0.8730 C   0  0  2  0  0  0  0  0  0  0  0  0
    0.1360   20.1940   -1.1300 O   0  0  0  0  0  0  0  0  0  0  0  0
   -0.3020   18.1510    0.1330 C   0  0  0  0  0  0  0  0  0  0  0  0
   -1.4570   17.2540    0.6420 C   0  0  0  0  0  0  0  0  0  0  0  0
    0.2310   18.9180    1.3730 C   0  0  0  0  0  0  0  0  0  0  0  0
    1.4800   15.7670   -2.6220 C   0  0  1  0  0  0  0  0  0  0  0  0
    2.4430   16.6700   -3.4510 C   0  0  0  0  0  0  0  0  0  0  0  0
    0.7820   14.7990   -3.6490 C   0  0  0  0  0  0  0  0  0  0  0  0
    0.2890   13.4450   -3.1040 C   0  0  0  0  0  0  0  0  0  0  0  0
    1.3860   12.7480   -2.2940 C   0  0  2  0  0  0  0  0  0  0  0  0
    2.5810   12.4510   -3.2630 C   0  0  0  0  0  0  0  0  0  0  0  0
   -1.0567   10.6859   -3.2335 H   0  0  0  0  0  0  0  0  0  0  0  0
    0.3193   11.2535   -4.2389 H   0  0  0  0  0  0  0  0  0  0  0  0
   -0.1364    9.5160   -4.2389 H   0  0  0  0  0  0  0  0  0  0  0  0
    1.8808    9.9352   -2.8816 H   0  0  0  0  0  0  0  0  0  0  0  0
    1.3272    8.3074   -1.4630 H   0  0  0  0  0  0  0  0  0  0  0  0
    0.0905    9.3746   -0.6418 H   0  0  0  0  0  0  0  0  0  0  0  0
   -0.6601    8.2803   -3.3029 H   0  0  0  0  0  0  0  0  0  0  0  0
   -0.5411    7.1029   -1.9290 H   0  0  0  0  0  0  0  0  0  0  0  0
   -2.4967    7.6915   -2.0876 H   0  0  0  0  0  0  0  0  0  0  0  0
   -1.3189    9.6596    1.5124 H   0  0  0  0  0  0  0  0  0  0  0  0
   -0.1932    9.0774    0.2394 H   0  0  0  0  0  0  0  0  0  0  0  0
   -0.7418   10.7879    0.2394 H   0  0  0  0  0  0  0  0  0  0  0  0
   -3.4067    9.3463    1.3536 H   0  0  0  0  0  0  0  0  0  0  0  0
   -4.1237   10.2271   -0.0381 H   0  0  0  0  0  0  0  0  0  0  0  0
   -4.0794    8.4313   -0.0381 H   0  0  0  0  0  0  0  0  0  0  0  0
   -0.0414   11.4817   -1.2288 H   0  0  0  0  0  0  0  0  0  0  0  0
    1.6037   10.9646    0.4629 H   0  0  0  0  0  0  0  0  0  0  0  0
    2.8348   10.5531   -0.7503 H   0  0  0  0  0  0  0  0  0  0  0  0
    2.7439   12.9717    0.7692 H   0  0  0  0  0  0  0  0  0  0  0  0
    3.7302   12.7488   -0.6732 H   0  0  0  0  0  0  0  0  0  0  0  0
    0.9263   13.8359    0.9592 H   0  0  0  0  0  0  0  0  0  0  0  0
    0.1640   14.9254   -0.2484 H   0  0  0  0  0  0  0  0  0  0  0  0
   -0.2259   13.1720   -0.2484 H   0  0  0  0  0  0  0  0  0  0  0  0
    3.2672   14.6370   -2.1206 H   0  0  0  0  0  0  0  0  0  0  0  0
    3.2398   15.3096    0.3672 H   0  0  0  0  0  0  0  0  0  0  0  0
    3.7118   16.5161   -0.9411 H   0  0  0  0  0  0  0  0  0  0  0  0
    2.1637   17.4299    0.9837 H   0  0  0  0  0  0  0  0  0  0  0  0
   -0.4331   15.9367   -1.7240 H   0  0  0  0  0  0  0  0  0  0  0  0
    0.6756   18.4854   -3.0532 H   0  0  0  0  0  0  0  0  0  0  0  0
   -0.5405   17.3280   -3.7545 H   0  0  0  0  0  0  0  0  0  0  0  0
   -1.6012   19.3881   -2.8859 H   0  0  0  0  0  0  0  0  0  0  0  0
   -2.1329   17.8979   -2.0125 H   0  0  0  0  0  0  0  0  0  0  0  0
   -1.7516   19.6389   -0.4052 H   0  0  0  0  0  0  0  0  0  0  0  0
    0.9170   19.7440   -1.4940 H   0  0  0  0  0  0  0  0  0  0  0  0
   -1.4612   17.2507    1.7420 H   0  0  0  0  0  0  0  0  0  0  0  0
   -2.4160   17.6464    0.2728 H   0  0  0  0  0  0  0  0  0  0  0  0
   -1.3142   16.2277    0.2728 H   0  0  0  0  0  0  0  0  0  0  0  0
   -0.1158   18.4189    2.2898 H   0  0  0  0  0  0  0  0  0  0  0  0
    1.3308   18.9268    1.3539 H   0  0  0  0  0  0  0  0  0  0  0  0
   -0.1443   19.9518    1.3539 H   0  0  0  0  0  0  0  0  0  0  0  0
    3.0718   17.2597   -2.7677 H   0  0  0  0  0  0  0  0  0  0  0  0
    3.0827   16.0386   -4.0851 H   0  0  0  0  0  0  0  0  0  0  0  0
    1.8540   17.3489   -4.0851 H   0  0  0  0  0  0  0  0  0  0  0  0
   -0.0887   15.3271   -4.0649 H   0  0  0  0  0  0  0  0  0  0  0  0
    1.5622   14.5468   -4.3822 H   0  0  0  0  0  0  0  0  0  0  0  0
   -0.5840   13.6141   -2.4565 H   0  0  0  0  0  0  0  0  0  0  0  0
    0.0188   12.8019   -3.9546 H   0  0  0  0  0  0  0  0  0  0  0  0
    3.4831   12.2268   -2.6748 H   0  0  0  0  0  0  0  0  0  0  0  0
    2.3328   11.5872   -3.8973 H   0  0  0  0  0  0  0  0  0  0  0  0
    2.7661   13.3305   -3.8973 H   0  0  0  0  0  0  0  0  0  0  0  0
  1  2  1  0
  2  3  1  0
  3  4  1  0
  4  5  1  0
  5  6  1  0
  6  7  1  0
  7  8  1  0
  7  9  1  0
  2 10  1  0
 10 11  1  0
 11 12  1  0
 12 13  1  0
 13 14  1  1
 13 15  1  0
 15 16  1  0
 16 17  1  0
 17 18  2  0
 18 19  1  0
 19 20  1  0
 20 21  1  0
 21 22  1  0
 22 23  1  0
 22 24  1  0
 24 25  1  0
 24 26  1  0
 19 27  1  0
 27 28  1  6
 27 29  1  0
 29 30  1  0
 30 31  1  0
 31 32  1  6
  7  5  1  0
 31 10  1  0
 31 13  1  0
 27 15  1  0
 24 18  1  0
  1 33  1  0
  1 34  1  0
  1 35  1  0
  2 36  1  6
  3 37  1  0
  3 38  1  0
  4 39  1  0
  4 40  1  0
  5 41  1  6
  8 42  1  0
  8 43  1  0
  8 44  1  0
  9 45  1  0
  9 46  1  0
  9 47  1  0
 10 48  1  1
 11 49  1  0
 11 50  1  0
 12 51  1  0
 12 52  1  0
 14 53  1  0
 14 54  1  0
 14 55  1  0
 15 56  1  6
 16 57  1  0
 16 58  1  0
 17 59  1  0
 19 60  1  1
 20 61  1  0
 20 62  1  0
 21 63  1  0
 21 64  1  0
 22 65  1  1
 23 66  1  0
 25 67  1  0
 25 68  1  0
 25 69  1  0
 26 70  1  0
 26 71  1  0
 26 72  1  0
 28 73  1  0
 28 74  1  0
 28 75  1  0
 29 76  1  0
 29 77  1  0
 30 78  1  0
 30 79  1  0
 32 80  1  0
 32 81  1  0
 32 82  1  0
M  END
>  <meeko>  (8) 
{"is_sidechain": [false], "intermolecular_energy": 2.731, "internal_energy": -0.839}

$$$$
EPH_relaxed_0001_pdb2pqr_Repair_219_r2_0001_out
     RDKit          3D

 82 86  0  0  0  0  0  0  0  0999 V2000
    2.7280   18.9430   -1.2240 C   0  0  0  0  0  0  0  0  0  0  0  0
    2.3820   17.8950   -2.2840 C   0  0  2  0  0  0  0  0  0  0  0  0
    0.9300   18.0320   -2.7840 C   0  0  0  0  0  0  0  0  0  0  0  0
    0.2400   19.3190   -2.3260 C   0  0  0  0  0  0  0  0  0  0  0  0
   -1.0020   19.0330   -1.5370 C   0  0  2  0  0  0  0  0  0  0  0  0
   -1.7490   20.1940   -1.1540 O   0  0  0  0  0  0  0  0  0  0  0  0
   -1.1790   19.4260   -0.0820 C   0  0  0  0  0  0  0  0  0  0  0  0
   -0.0990   20.1380    0.6700 C   0  0  0  0  0  0  0  0  0  0  0  0
   -2.1920   18.6920    0.7390 C   0  0  0  0  0  0  0  0  0  0  0  0
    2.6100   16.4950   -1.7250 C   0  0  1  0  0  0  0  0  0  0  0  0
    3.4230   16.5050   -0.4030 C   0  0  0  0  0  0  0  0  0  0  0  0
    2.8700   15.3510    0.4710 C   0  0  0  0  0  0  0  0  0  0  0  0
    1.9980   14.5140   -0.4940 C   0  0  1  0  0  0  0  0  0  0  0  0
    3.0090   13.6120   -1.2680 C   0  0  0  0  0  0  0  0  0  0  0  0
    0.8560   13.6710    0.1620 C   0  0  2  0  0  0  0  0  0  0  0  0
    1.3290   12.5820    1.1400 C   0  0  0  0  0  0  0  0  0  0  0  0
    1.5840   11.2430    0.5300 C   0  0  0  0  0  0  0  0  0  0  0  0
    1.1720   10.8480   -0.6890 C   0  0  0  0  0  0  0  0  0  0  0  0
    0.2830   11.7540   -1.5520 C   0  0  1  0  0  0  0  0  0  0  0  0
   -0.8910   10.9240   -2.1340 C   0  0  0  0  0  0  0  0  0  0  0  0
   -0.4150    9.6850   -2.8870 C   0  0  0  0  0  0  0  0  0  0  0  0
    0.4160    8.7810   -1.9790 C   0  0  2  0  0  0  0  0  0  0  0  0
   -0.4330    8.2480   -0.9580 O   0  0  0  0  0  0  0  0  0  0  0  0
    1.6230    9.5110   -1.3270 C   0  0  0  0  0  0  0  0  0  0  0  0
    2.6880    9.8230   -2.4070 C   0  0  0  0  0  0  0  0  0  0  0  0
    2.2920    8.5290   -0.3280 C   0  0  0  0  0  0  0  0  0  0  0  0
   -0.2030   13.1030   -0.8680 C   0  0  1  0  0  0  0  0  0  0  0  0
   -1.5140   12.8490   -0.0630 C   0  0  0  0  0  0  0  0  0  0  0  0
   -0.5660   14.1460   -1.9890 C   0  0  0  0  0  0  0  0  0  0  0  0
    0.5810   15.0330   -2.5120 C   0  0  0  0  0  0  0  0  0  0  0  0
    1.3570   15.6650   -1.3520 C   0  0  2  0  0  0  0  0  0  0  0  0
    0.3700   16.5960   -0.5680 C   0  0  0  0  0  0  0  0  0  0  0  0
    2.5857   18.5119   -0.2220 H   0  0  0  0  0  0  0  0  0  0  0  0
    3.7764   19.2536   -1.3440 H   0  0  0  0  0  0  0  0  0  0  0  0
    2.0707   19.8168   -1.3440 H   0  0  0  0  0  0  0  0  0  0  0  0
    3.0452   18.0643   -3.1451 H   0  0  0  0  0  0  0  0  0  0  0  0
    0.9385   18.0151   -3.8838 H   0  0  0  0  0  0  0  0  0  0  0  0
    0.3621   17.1930   -2.3555 H   0  0  0  0  0  0  0  0  0  0  0  0
    0.9371   19.8927   -1.6976 H   0  0  0  0  0  0  0  0  0  0  0  0
   -0.0469   19.8908   -3.2208 H   0  0  0  0  0  0  0  0  0  0  0  0
   -1.1462   18.0796   -2.0664 H   0  0  0  0  0  0  0  0  0  0  0  0
   -0.2695   20.0256    1.7509 H   0  0  0  0  0  0  0  0  0  0  0  0
    0.8776   19.7061    0.4060 H   0  0  0  0  0  0  0  0  0  0  0  0
   -0.1111   21.2058    0.4060 H   0  0  0  0  0  0  0  0  0  0  0  0
   -1.9794   18.8460    1.8072 H   0  0  0  0  0  0  0  0  0  0  0  0
   -3.1976   19.0725    0.5067 H   0  0  0  0  0  0  0  0  0  0  0  0
   -2.1436   17.6179    0.5067 H   0  0  0  0  0  0  0  0  0  0  0  0
    3.1236   16.0359   -2.5825 H   0  0  0  0  0  0  0  0  0  0  0  0
    4.4904   16.3426   -0.6135 H   0  0  0  0  0  0  0  0  0  0  0  0
    3.3265   17.4719    0.1126 H   0  0  0  0  0  0  0  0  0  0  0  0
    3.6920   14.7435    0.8775 H   0  0  0  0  0  0  0  0  0  0  0  0
    2.2989   15.7196    1.3359 H   0  0  0  0  0  0  0  0  0  0  0  0
    3.6304   13.0576   -0.5494 H   0  0  0  0  0  0  0  0  0  0  0  0
    2.4567   12.9011   -1.9001 H   0  0  0  0  0  0  0  0  0  0  0  0
    3.6526   14.2415   -1.9001 H   0  0  0  0  0  0  0  0  0  0  0  0
    0.3338   14.4184    0.7774 H   0  0  0  0  0  0  0  0  0  0  0  0
    2.2639   12.9267    1.6060 H   0  0  0  0  0  0  0  0  0  0  0  0
    0.5063   12.4382    1.8559 H   0  0  0  0  0  0  0  0  0  0  0  0
    2.1569   10.5184    1.1273 H   0  0  0  0  0  0  0  0  0  0  0  0
    0.9227   12.1194   -2.3689 H   0  0  0  0  0  0  0  0  0  0  0  0
   -1.5418   10.6053   -1.3064 H   0  0  0  0  0  0  0  0  0  0  0  0
   -1.4293   11.5631   -2.8494 H   0  0  0  0  0  0  0  0  0  0  0  0
   -1.2900    9.1253   -3.2490 H   0  0  0  0  0  0  0  0  0  0  0  0
    0.2120   10.0065   -3.7317 H   0  0  0  0  0  0  0  0  0  0  0  0
    0.8354    7.9797   -2.6051 H   0  0  0  0  0  0  0  0  0  0  0  0
   -0.2590    7.2930   -0.9000 H   0  0  0  0  0  0  0  0  0  0  0  0
    3.6343   10.1002   -1.9195 H   0  0  0  0  0  0  0  0  0  0  0  0
    2.8456    8.9333   -3.0343 H   0  0  0  0  0  0  0  0  0  0  0  0
    2.3406   10.6571   -3.0343 H   0  0  0  0  0  0  0  0  0  0  0  0
    2.0743    8.8486    0.7018 H   0  0  0  0  0  0  0  0  0  0  0  0
    1.8956    7.5156   -0.4889 H   0  0  0  0  0  0  0  0  0  0  0  0
    3.3802    8.5269   -0.4889 H   0  0  0  0  0  0  0  0  0  0  0  0
   -1.2966   12.8911    1.0145 H   0  0  0  0  0  0  0  0  0  0  0  0
   -2.2559   13.6201   -0.3178 H   0  0  0  0  0  0  0  0  0  0  0  0
   -1.9143   11.8566   -0.3178 H   0  0  0  0  0  0  0  0  0  0  0  0
   -0.9708   13.5866   -2.8453 H   0  0  0  0  0  0  0  0  0  0  0  0
   -1.2745   14.8417   -1.5157 H   0  0  0  0  0  0  0  0  0  0  0  0
    1.2677   14.4172   -3.1113 H   0  0  0  0  0  0  0  0  0  0  0  0
    0.1505   15.8377   -3.1261 H   0  0  0  0  0  0  0  0  0  0  0  0
    0.5165   16.4578    0.5134 H   0  0  0  0  0  0  0  0  0  0  0  0
    0.5666   17.6452   -0.8335 H   0  0  0  0  0  0  0  0  0  0  0  0
   -0.6659   16.3385   -0.8335 H   0  0  0  0  0  0  0  0  0  0  0  0
  1  2  1  0
  2  3  1  0
  3  4  1  0
  4  5  1  0
  5  6  1  0
  6  7  1  0
  7  8  1  0
  7  9  1  0
  2 10  1  0
 10 11  1  0
 11 12  1  0
 12 13  1  0
 13 14  1  6
 13 15  1  0
 15 16  1  0
 16 17  1  0
 17 18  2  0
 18 19  1  0
 19 20  1  0
 20 21  1  0
 21 22  1  0
 22 23  1  0
 22 24  1  0
 24 25  1  0
 24 26  1  0
 19 27  1  0
 27 28  1  1
 27 29  1  0
 29 30  1  0
 30 31  1  0
 31 32  1  1
  7  5  1  0
 31 10  1  0
 31 13  1  0
 27 15  1  0
 24 18  1  0
  1 33  1  0
  1 34  1  0
  1 35  1  0
  2 36  1  6
  3 37  1  0
  3 38  1  0
  4 39  1  0
  4 40  1  0
  5 41  1  1
  8 42  1  0
  8 43  1  0
  8 44  1  0
  9 45  1  0
  9 46  1  0
  9 47  1  0
 10 48  1  6
 11 49  1  0
 11 50  1  0
 12 51  1  0
 12 52  1  0
 14 53  1  0
 14 54  1  0
 14 55  1  0
 15 56  1  1
 16 57  1  0
 16 58  1  0
 17 59  1  0
 19 60  1  6
 20 61  1  0
 20 62  1  0
 21 63  1  0
 21 64  1  0
 22 65  1  6
 23 66  1  0
 25 67  1  0
 25 68  1  0
 25 69  1  0
 26 70  1  0
 26 71  1  0
 26 72  1  0
 28 73  1  0
 28 74  1  0
 28 75  1  0
 29 76  1  0
 29 77  1  0
 30 78  1  0
 30 79  1  0
 32 80  1  0
 32 81  1  0
 32 82  1  0
M  END
>  <meeko>  (9) 
{"is_sidechain": [false], "intermolecular_energy": 2.731, "internal_energy": -0.839}

$$$$
EPH_relaxed_0001_pdb2pqr_Repair_219_r2_0001_out
     RDKit          3D

 82 86  0  0  0  0  0  0  0  0999 V2000
   -0.0250    9.2520   -2.0640 C   0  0  0  0  0  0  0  0  0  0  0  0
    0.9970   10.2630   -2.5920 C   0  0  2  0  0  0  0  0  0  0  0  0
    2.4050    9.6490   -2.7250 C   0  0  0  0  0  0  0  0  0  0  0  0
    3.2730   10.3240   -3.7910 C   0  0  0  0  0  0  0  0  0  0  0  0
    4.6680   10.5670   -3.2980 C   0  0  2  0  0  0  0  0  0  0  0  0
    5.2200   11.8380   -3.6650 O   0  0  0  0  0  0  0  0  0  0  0  0
    5.8710   10.6810   -4.2160 C   0  0  0  0  0  0  0  0  0  0  0  0
    5.7340   10.5550   -5.7010 C   0  0  0  0  0  0  0  0  0  0  0  0
    7.2320   10.4270   -3.6460 C   0  0  0  0  0  0  0  0  0  0  0  0
    1.0430   11.4820   -1.6780 C   0  0  1  0  0  0  0  0  0  0  0  0
    2.1060   11.3460   -0.5550 C   0  0  0  0  0  0  0  0  0  0  0  0
    2.6830   12.7640   -0.3110 C   0  0  0  0  0  0  0  0  0  0  0  0
    1.7130   13.7130   -1.0540 C   0  0  1  0  0  0  0  0  0  0  0  0
    0.5080   13.8980   -0.0790 C   0  0  0  0  0  0  0  0  0  0  0  0
    2.3040   15.0870   -1.5090 C   0  0  2  0  0  0  0  0  0  0  0  0
    2.7830   16.0010   -0.3690 C   0  0  0  0  0  0  0  0  0  0  0  0
    1.7560   16.9400    0.1710 C   0  0  0  0  0  0  0  0  0  0  0  0
    0.5890   17.2480   -0.4240 C   0  0  0  0  0  0  0  0  0  0  0  0
    0.2470   16.7040   -1.8170 C   0  0  1  0  0  0  0  0  0  0  0  0
   -0.3020   17.8540   -2.7020 C   0  0  0  0  0  0  0  0  0  0  0  0
   -1.4780   18.5800   -2.0550 C   0  0  0  0  0  0  0  0  0  0  0  0
   -1.0820   19.1560   -0.6980 C   0  0  2  0  0  0  0  0  0  0  0  0
   -0.1190   20.1940   -0.9020 O   0  0  0  0  0  0  0  0  0  0  0  0
   -0.5050   18.0910    0.2760 C   0  0  0  0  0  0  0  0  0  0  0  0
   -1.6360   17.1370    0.7330 C   0  0  0  0  0  0  0  0  0  0  0  0
   -0.0160   18.8270    1.5520 C   0  0  0  0  0  0  0  0  0  0  0  0
    1.3950   15.8740   -2.5380 C   0  0  1  0  0  0  0  0  0  0  0  0
    2.3390   16.8390   -3.3190 C   0  0  0  0  0  0  0  0  0  0  0  0
    0.7450   14.9240   -3.6120 C   0  0  0  0  0  0  0  0  0  0  0  0
    0.2900   13.5340   -3.1260 C   0  0  0  0  0  0  0  0  0  0  0  0
    1.3990   12.8430   -2.3260 C   0  0  2  0  0  0  0  0  0  0  0  0
    2.6170   12.6230   -3.2870 C   0  0  0  0  0  0  0  0  0  0  0  0
   -0.0155    9.2614   -0.9641 H   0  0  0  0  0  0  0  0  0  0  0  0
   -1.0284    9.5227   -2.4243 H   0  0  0  0  0  0  0  0  0  0  0  0
    0.2349    8.2457   -2.4243 H   0  0  0  0  0  0  0  0  0  0  0  0
    0.6732   10.5664   -3.5985 H   0  0  0  0  0  0  0  0  0  0  0  0
    2.9154    9.7373   -1.7546 H   0  0  0  0  0  0  0  0  0  0  0  0
    2.2711    8.6022   -3.0352 H   0  0  0  0  0  0  0  0  0  0  0  0
    3.3164    9.6755   -4.6784 H   0  0  0  0  0  0  0  0  0  0  0  0
    2.8214   11.2968   -4.0354 H   0  0  0  0  0  0  0  0  0  0  0  0
    4.4809    9.9623   -2.3984 H   0  0  0  0  0  0  0  0  0  0  0  0
    4.9430    9.8275   -5.9358 H   0  0  0  0  0  0  0  0  0  0  0  0
    5.4712   11.5335   -6.1293 H   0  0  0  0  0  0  0  0  0  0  0  0
    6.6871   10.2114   -6.1293 H   0  0  0  0  0  0  0  0  0  0  0  0
    7.1772   10.4372   -2.5474 H   0  0  0  0  0  0  0  0  0  0  0  0
    7.5946    9.4457   -3.9859 H   0  0  0  0  0  0  0  0  0  0  0  0
    7.9241   11.2115   -3.9859 H   0  0  0  0  0  0  0  0  0  0  0  0
   -0.0006   11.4922   -1.3305 H   0  0  0  0  0  0  0  0  0  0  0  0
    1.6387   10.9638    0.3646 H   0  0  0  0  0  0  0  0  0  0  0  0
    2.8993   10.6415   -0.8454 H   0  0  0  0  0  0  0  0  0  0  0  0
    2.7045   12.9948    0.7643 H   0  0  0  0  0  0  0  0  0  0  0  0
    3.7182   12.8607   -0.6702 H   0  0  0  0  0  0  0  0  0  0  0  0
    0.8652   13.8432    0.9599 H   0  0  0  0  0  0  0  0  0  0  0  0
    0.0411   14.8783   -0.2550 H   0  0  0  0  0  0  0  0  0  0  0  0
   -0.2315   13.1029   -0.2550 H   0  0  0  0  0  0  0  0  0  0  0  0
    3.2125   14.7853   -2.0508 H   0  0  0  0  0  0  0  0  0  0  0  0
    3.1266   15.3616    0.4575 H   0  0  0  0  0  0  0  0  0  0  0  0
    3.5757   16.6316   -0.7978 H   0  0  0  0  0  0  0  0  0  0  0  0
    1.9713   17.4207    1.1367 H   0  0  0  0  0  0  0  0  0  0  0  0
   -0.5348   15.9455   -1.6637 H   0  0  0  0  0  0  0  0  0  0  0  0
    0.5059   18.5792   -2.8789 H   0  0  0  0  0  0  0  0  0  0  0  0
   -0.6604   17.4097   -3.6423 H   0  0  0  0  0  0  0  0  0  0  0  0
   -1.8019   19.3994   -2.7135 H   0  0  0  0  0  0  0  0  0  0  0  0
   -2.2967   17.8605   -1.9063 H   0  0  0  0  0  0  0  0  0  0  0  0
   -1.9954   19.5481   -0.2268 H   0  0  0  0  0  0  0  0  0  0  0  0
    0.7240   19.8930   -0.5210 H   0  0  0  0  0  0  0  0  0  0  0  0
   -1.6698   17.1084    1.8321 H   0  0  0  0  0  0  0  0  0  0  0  0
   -2.5999   17.4990    0.3458 H   0  0  0  0  0  0  0  0  0  0  0  0
   -1.4417   16.1259    0.3458 H   0  0  0  0  0  0  0  0  0  0  0  0
   -0.3723   18.2907    2.4439 H   0  0  0  0  0  0  0  0  0  0  0  0
    1.0835   18.8589    1.5582 H   0  0  0  0  0  0  0  0  0  0  0  0
   -0.4126   19.8530    1.5582 H   0  0  0  0  0  0  0  0  0  0  0  0
    2.9241   17.4371   -2.6049 H   0  0  0  0  0  0  0  0  0  0  0  0
    3.0214   16.2522   -3.9515 H   0  0  0  0  0  0  0  0  0  0  0  0
    1.7373   17.5083   -3.9515 H   0  0  0  0  0  0  0  0  0  0  0  0
   -0.1369   15.4386   -4.0211 H   0  0  0  0  0  0  0  0  0  0  0  0
    1.5435   14.7263   -4.3422 H   0  0  0  0  0  0  0  0  0  0  0  0
   -0.5972   13.6491   -2.4860 H   0  0  0  0  0  0  0  0  0  0  0  0
    0.0533   12.9154   -4.0042 H   0  0  0  0  0  0  0  0  0  0  0  0
    3.5279   12.4585   -2.6927 H   0  0  0  0  0  0  0  0  0  0  0  0
    2.4294   11.7442   -3.9215 H   0  0  0  0  0  0  0  0  0  0  0  0
    2.7487   13.5119   -3.9215 H   0  0  0  0  0  0  0  0  0  0  0  0
  1  2  1  0
  2  3  1  0
  3  4  1  0
  4  5  1  0
  5  6  1  0
  6  7  1  0
  7  8  1  0
  7  9  1  0
  2 10  1  0
 10 11  1  0
 11 12  1  0
 12 13  1  0
 13 14  1  1
 13 15  1  0
 15 16  1  0
 16 17  1  0
 17 18  2  0
 18 19  1  0
 19 20  1  0
 20 21  1  0
 21 22  1  0
 22 23  1  0
 22 24  1  0
 24 25  1  0
 24 26  1  0
 19 27  1  0
 27 28  1  6
 27 29  1  0
 29 30  1  0
 30 31  1  0
 31 32  1  6
  7  5  1  0
 31 10  1  0
 31 13  1  0
 27 15  1  0
 24 18  1  0
  1 33  1  0
  1 34  1  0
  1 35  1  0
  2 36  1  6
  3 37  1  0
  3 38  1  0
  4 39  1  0
  4 40  1  0
  5 41  1  1
  8 42  1  0
  8 43  1  0
  8 44  1  0
  9 45  1  0
  9 46  1  0
  9 47  1  0
 10 48  1  1
 11 49  1  0
 11 50  1  0
 12 51  1  0
 12 52  1  0
 14 53  1  0
 14 54  1  0
 14 55  1  0
 15 56  1  6
 16 57  1  0
 16 58  1  0
 17 59  1  0
 19 60  1  1
 20 61  1  0
 20 62  1  0
 21 63  1  0
 21 64  1  0
 22 65  1  1
 23 66  1  0
 25 67  1  0
 25 68  1  0
 25 69  1  0
 26 70  1  0
 26 71  1  0
 26 72  1  0
 28 73  1  0
 28 74  1  0
 28 75  1  0
 29 76  1  0
 29 77  1  0
 30 78  1  0
 30 79  1  0
 32 80  1  0
 32 81  1  0
 32 82  1  0
M  END
>  <meeko>  (10) 
{"is_sidechain": [false], "intermolecular_energy": 2.731, "internal_energy": -0.839}

$$$$
EPH_relaxed_0001_pdb2pqr_Repair_219_r2_0001_out
     RDKit          3D

 82 86  0  0  0  0  0  0  0  0999 V2000
   -0.9610   16.3980   -5.9100 C   0  0  0  0  0  0  0  0  0  0  0  0
    0.1570   15.7130   -6.7010 C   0  0  2  0  0  0  0  0  0  0  0  0
   -0.2180   15.5130   -8.1830 C   0  0  0  0  0  0  0  0  0  0  0  0
    0.4380   16.5250   -9.1260 C   0  0  0  0  0  0  0  0  0  0  0  0
    1.8430   16.1340   -9.4680 C   0  0  2  0  0  0  0  0  0  0  0  0
    2.3350   16.6830  -10.6980 O   0  0  0  0  0  0  0  0  0  0  0  0
    2.2030   15.2530  -10.6500 C   0  0  0  0  0  0  0  0  0  0  0  0
    1.1510   14.7080  -11.5650 C   0  0  0  0  0  0  0  0  0  0  0  0
    3.5120   14.5270  -10.6290 C   0  0  0  0  0  0  0  0  0  0  0  0
    0.4970   14.3710   -6.0640 C   0  0  1  0  0  0  0  0  0  0  0  0
    1.7250   13.6900   -6.7240 C   0  0  0  0  0  0  0  0  0  0  0  0
    2.4830   12.9440   -5.5960 C   0  0  0  0  0  0  0  0  0  0  0  0
    1.5000   12.9400   -4.4020 C   0  0  1  0  0  0  0  0  0  0  0  0
    0.5190   11.7620   -4.6950 C   0  0  0  0  0  0  0  0  0  0  0  0
    2.1400   12.8190   -2.9810 C   0  0  2  0  0  0  0  0  0  0  0  0
    2.9130   11.5130   -2.7220 C   0  0  0  0  0  0  0  0  0  0  0  0
    2.1050   10.3980   -2.1460 C   0  0  0  0  0  0  0  0  0  0  0  0
    0.8880   10.5220   -1.5840 C   0  0  0  0  0  0  0  0  0  0  0  0
    0.2440   11.9020   -1.3980 C   0  0  1  0  0  0  0  0  0  0  0  0
   -0.3330   12.0150    0.0370 C   0  0  0  0  0  0  0  0  0  0  0  0
   -1.2880   10.8750    0.3760 C   0  0  0  0  0  0  0  0  0  0  0  0
   -0.5940    9.5220    0.2360 C   0  0  2  0  0  0  0  0  0  0  0  0
    0.4210    9.4180    1.2390 O   0  0  0  0  0  0  0  0  0  0  0  0
    0.0350    9.2990   -1.1680 C   0  0  0  0  0  0  0  0  0  0  0  0
   -1.0880    9.1100   -2.2170 C   0  0  0  0  0  0  0  0  0  0  0  0
    0.8230    7.9620   -1.1310 C   0  0  0  0  0  0  0  0  0  0  0  0
    1.1480   13.1480   -1.7930 C   0  0  1  0  0  0  0  0  0  0  0  0
    2.0310   13.5710   -0.5790 C   0  0  0  0  0  0  0  0  0  0  0  0
    0.2170   14.3770   -2.1140 C   0  0  0  0  0  0  0  0  0  0  0  0
   -0.2860   14.5070   -3.5650 C   0  0  0  0  0  0  0  0  0  0  0  0
    0.8700   14.3710   -4.5600 C   0  0  2  0  0  0  0  0  0  0  0  0
    1.8630   15.5560   -4.3050 C   0  0  0  0  0  0  0  0  0  0  0  0
   -0.7719   16.2821   -4.8326 H   0  0  0  0  0  0  0  0  0  0  0  0
   -0.9879   17.4678   -6.1646 H   0  0  0  0  0  0  0  0  0  0  0  0
   -1.9263   15.9361   -6.1646 H   0  0  0  0  0  0  0  0  0  0  0  0
    1.0365   16.3730   -6.6697 H   0  0  0  0  0  0  0  0  0  0  0  0
    0.0936   14.5027   -8.4867 H   0  0  0  0  0  0  0  0  0  0  0  0
   -1.3055   15.6584   -8.2618 H   0  0  0  0  0  0  0  0  0  0  0  0
   -0.1516   16.5827  -10.0529 H   0  0  0  0  0  0  0  0  0  0  0  0
    0.4677   17.4993   -8.6163 H   0  0  0  0  0  0  0  0  0  0  0  0
    2.1135   16.0861   -8.4028 H   0  0  0  0  0  0  0  0  0  0  0  0
    0.3305   14.2829  -10.9683 H   0  0  0  0  0  0  0  0  0  0  0  0
    0.7616   15.5178  -12.1995 H   0  0  0  0  0  0  0  0  0  0  0  0
    1.5879   13.9228  -12.1995 H   0  0  0  0  0  0  0  0  0  0  0  0
    3.8199   14.3562   -9.5869 H   0  0  0  0  0  0  0  0  0  0  0  0
    3.4034   13.5602  -11.1424 H   0  0  0  0  0  0  0  0  0  0  0  0
    4.2746   15.1311  -11.1424 H   0  0  0  0  0  0  0  0  0  0  0  0
   -0.4594   13.8488   -6.2144 H   0  0  0  0  0  0  0  0  0  0  0  0
    1.3945   12.9772   -7.4939 H   0  0  0  0  0  0  0  0  0  0  0  0
    2.3737   14.4326   -7.2115 H   0  0  0  0  0  0  0  0  0  0  0  0
    2.7239   11.9159   -5.9041 H   0  0  0  0  0  0  0  0  0  0  0  0
    3.4399   13.4259   -5.3469 H   0  0  0  0  0  0  0  0  0  0  0  0
    0.1639   11.3356   -3.7452 H   0  0  0  0  0  0  0  0  0  0  0  0
   -0.3393   12.1348   -5.2732 H   0  0  0  0  0  0  0  0  0  0  0  0
    1.0410   10.9853   -5.2732 H   0  0  0  0  0  0  0  0  0  0  0  0
    2.8972   13.6168   -2.9952 H   0  0  0  0  0  0  0  0  0  0  0  0
    3.3316   11.1701   -3.6797 H   0  0  0  0  0  0  0  0  0  0  0  0
    3.6773   11.7557   -1.9691 H   0  0  0  0  0  0  0  0  0  0  0  0
    2.5412    9.3889   -2.1840 H   0  0  0  0  0  0  0  0  0  0  0  0
   -0.5721   11.9584   -2.1334 H   0  0  0  0  0  0  0  0  0  0  0  0
    0.5009   12.0012    0.7542 H   0  0  0  0  0  0  0  0  0  0  0  0
   -0.9018   12.9548    0.0946 H   0  0  0  0  0  0  0  0  0  0  0  0
   -1.6380   10.9946    1.4119 H   0  0  0  0  0  0  0  0  0  0  0  0
   -2.1367   10.9083   -0.3230 H   0  0  0  0  0  0  0  0  0  0  0  0
   -1.3605    8.7435    0.3644 H   0  0  0  0  0  0  0  0  0  0  0  0
    1.1790    8.9560    0.8450 H   0  0  0  0  0  0  0  0  0  0  0  0
   -2.0468    8.9486   -1.7026 H   0  0  0  0  0  0  0  0  0  0  0  0
   -1.1566   10.0092   -2.8468 H   0  0  0  0  0  0  0  0  0  0  0  0
   -0.8584    8.2379   -2.8468 H   0  0  0  0  0  0  0  0  0  0  0  0
    0.9966    7.6675   -0.0855 H   0  0  0  0  0  0  0  0  0  0  0  0
    0.2416    7.1795   -1.6407 H   0  0  0  0  0  0  0  0  0  0  0  0
    1.7892    8.0916   -1.6407 H   0  0  0  0  0  0  0  0  0  0  0  0
    1.5106   13.3217    0.3575 H   0  0  0  0  0  0  0  0  0  0  0  0
    2.9906   13.0348   -0.6191 H   0  0  0  0  0  0  0  0  0  0  0  0
    2.2146   14.6548   -0.6191 H   0  0  0  0  0  0  0  0  0  0  0  0
   -0.6653   14.3057   -1.4610 H   0  0  0  0  0  0  0  0  0  0  0  0
    0.8441   15.2650   -1.9459 H   0  0  0  0  0  0  0  0  0  0  0  0
   -1.0251   13.7164   -3.7618 H   0  0  0  0  0  0  0  0  0  0  0  0
   -0.7419   15.5002   -3.6906 H   0  0  0  0  0  0  0  0  0  0  0  0
    1.9870   15.7039   -3.2221 H   0  0  0  0  0  0  0  0  0  0  0  0
    2.8380   15.3211   -4.7570 H   0  0  0  0  0  0  0  0  0  0  0  0
    1.4612   16.4748   -4.7570 H   0  0  0  0  0  0  0  0  0  0  0  0
  1  2  1  0
  2  3  1  0
  3  4  1  0
  4  5  1  0
  5  6  1  0
  6  7  1  0
  7  8  1  0
  7  9  1  0
  2 10  1  0
 10 11  1  0
 11 12  1  0
 12 13  1  0
 13 14  1  6
 13 15  1  0
 15 16  1  0
 16 17  1  0
 17 18  2  0
 18 19  1  0
 19 20  1  0
 20 21  1  0
 21 22  1  0
 22 23  1  0
 22 24  1  0
 24 25  1  0
 24 26  1  0
 19 27  1  0
 27 28  1  1
 27 29  1  0
 29 30  1  0
 30 31  1  0
 31 32  1  6
  7  5  1  0
 31 10  1  0
 31 13  1  0
 27 15  1  0
 24 18  1  0
  1 33  1  0
  1 34  1  0
  1 35  1  0
  2 36  1  6
  3 37  1  0
  3 38  1  0
  4 39  1  0
  4 40  1  0
  5 41  1  1
  8 42  1  0
  8 43  1  0
  8 44  1  0
  9 45  1  0
  9 46  1  0
  9 47  1  0
 10 48  1  1
 11 49  1  0
 11 50  1  0
 12 51  1  0
 12 52  1  0
 14 53  1  0
 14 54  1  0
 14 55  1  0
 15 56  1  6
 16 57  1  0
 16 58  1  0
 17 59  1  0
 19 60  1  6
 20 61  1  0
 20 62  1  0
 21 63  1  0
 21 64  1  0
 22 65  1  1
 23 66  1  0
 25 67  1  0
 25 68  1  0
 25 69  1  0
 26 70  1  0
 26 71  1  0
 26 72  1  0
 28 73  1  0
 28 74  1  0
 28 75  1  0
 29 76  1  0
 29 77  1  0
 30 78  1  0
 30 79  1  0
 32 80  1  0
 32 81  1  0
 32 82  1  0
M  END
>  <meeko>  (11) 
{"is_sidechain": [false], "intermolecular_energy": 2.731, "internal_energy": -0.839}

$$$$
EPH_relaxed_0001_pdb2pqr_Repair_219_r2_0001_out
     RDKit          3D

 82 86  0  0  0  0  0  0  0  0999 V2000
   -4.0590    7.3530   -3.5580 C   0  0  0  0  0  0  0  0  0  0  0  0
   -3.7210    7.2670   -2.0670 C   0  0  2  0  0  0  0  0  0  0  0  0
   -4.9330    6.8290   -1.2210 C   0  0  0  0  0  0  0  0  0  0  0  0
   -6.1560    6.4370   -2.0540 C   0  0  0  0  0  0  0  0  0  0  0  0
   -7.3740    6.2550   -1.2000 C   0  0  2  0  0  0  0  0  0  0  0  0
   -8.4610    5.5780   -1.8430 O   0  0  0  0  0  0  0  0  0  0  0  0
   -8.6970    6.9450   -1.4720 C   0  0  0  0  0  0  0  0  0  0  0  0
   -8.8700    7.8710   -2.6350 C   0  0  0  0  0  0  0  0  0  0  0  0
   -9.6670    7.1040   -0.3430 C   0  0  0  0  0  0  0  0  0  0  0  0
   -3.2000    8.6130   -1.5740 C   0  0  1  0  0  0  0  0  0  0  0  0
   -3.8570    9.0540   -0.2390 C   0  0  0  0  0  0  0  0  0  0  0  0
   -2.7680    9.8090    0.5670 C   0  0  0  0  0  0  0  0  0  0  0  0
   -1.6350   10.0660   -0.4540 C   0  0  1  0  0  0  0  0  0  0  0  0
   -2.0940   11.3250   -1.2540 C   0  0  0  0  0  0  0  0  0  0  0  0
   -0.2000   10.2490    0.1380 C   0  0  2  0  0  0  0  0  0  0  0  0
   -0.0290   11.4620    1.0690 C   0  0  0  0  0  0  0  0  0  0  0  0
    0.3910   12.7280    0.3980 C   0  0  0  0  0  0  0  0  0  0  0  0
    0.8960   12.8230   -0.8460 C   0  0  0  0  0  0  0  0  0  0  0  0
    1.1800   11.5660   -1.6790 C   0  0  1  0  0  0  0  0  0  0  0  0
    2.5870   11.6790   -2.3230 C   0  0  0  0  0  0  0  0  0  0  0  0
    2.7600   12.9640   -3.1280 C   0  0  0  0  0  0  0  0  0  0  0  0
    2.5260   14.1920   -2.2520 C   0  0  2  0  0  0  0  0  0  0  0  0
    3.5680   14.2660   -1.2740 O   0  0  0  0  0  0  0  0  0  0  0  0
    1.1430   14.1840   -1.5420 C   0  0  0  0  0  0  0  0  0  0  0  0
    0.0210   14.4070   -2.5860 C   0  0  0  0  0  0  0  0  0  0  0  0
    1.0920   15.4030   -0.5820 C   0  0  0  0  0  0  0  0  0  0  0  0
    0.9590   10.1780   -0.9370 C   0  0  1  0  0  0  0  0  0  0  0  0
    2.2540    9.7720   -0.1690 C   0  0  0  0  0  0  0  0  0  0  0  0
    0.7100    9.0550   -2.0120 C   0  0  0  0  0  0  0  0  0  0  0  0
   -0.7460    8.8410   -2.4690 C   0  0  0  0  0  0  0  0  0  0  0  0
   -1.6860    8.7200   -1.2650 C   0  0  2  0  0  0  0  0  0  0  0  0
   -1.2630    7.4480   -0.4530 C   0  0  0  0  0  0  0  0  0  0  0  0
   -5.1186    7.6226   -3.6788 H   0  0  0  0  0  0  0  0  0  0  0  0
   -3.4291    8.1195   -4.0331 H   0  0  0  0  0  0  0  0  0  0  0  0
   -3.8721    6.3787   -4.0331 H   0  0  0  0  0  0  0  0  0  0  0  0
   -2.9415    6.5001   -1.9479 H   0  0  0  0  0  0  0  0  0  0  0  0
   -4.6361    5.9629   -0.6113 H   0  0  0  0  0  0  0  0  0  0  0  0
   -5.2259    7.6938   -0.6075 H   0  0  0  0  0  0  0  0  0  0  0  0
   -6.3532    7.2286   -2.7919 H   0  0  0  0  0  0  0  0  0  0  0  0
   -5.9397    5.4797   -2.5507 H   0  0  0  0  0  0  0  0  0  0  0  0
   -6.7552    6.1764   -0.2940 H   0  0  0  0  0  0  0  0  0  0  0  0
   -9.0604    8.8900   -2.2672 H   0  0  0  0  0  0  0  0  0  0  0  0
   -7.9555    7.8667   -3.2463 H   0  0  0  0  0  0  0  0  0  0  0  0
   -9.7213    7.5368   -3.2463 H   0  0  0  0  0  0  0  0  0  0  0  0
   -9.1327    7.0164    0.6145 H   0  0  0  0  0  0  0  0  0  0  0  0
  -10.1453    8.0925   -0.4070 H   0  0  0  0  0  0  0  0  0  0  0  0
  -10.4358    6.3199   -0.4070 H   0  0  0  0  0  0  0  0  0  0  0  0
   -3.4509    9.2380   -2.4437 H   0  0  0  0  0  0  0  0  0  0  0  0
   -4.7103    9.7190   -0.4382 H   0  0  0  0  0  0  0  0  0  0  0  0
   -4.2332    8.1858    0.3220 H   0  0  0  0  0  0  0  0  0  0  0  0
   -3.1622   10.7590    0.9570 H   0  0  0  0  0  0  0  0  0  0  0  0
   -2.4214    9.2351    1.4391 H   0  0  0  0  0  0  0  0  0  0  0  0
   -2.3839   12.1202   -0.5515 H   0  0  0  0  0  0  0  0  0  0  0  0
   -1.2670   11.6787   -1.8872 H   0  0  0  0  0  0  0  0  0  0  0  0
   -2.9546   11.0634   -1.8872 H   0  0  0  0  0  0  0  0  0  0  0  0
   -0.0945    9.3618    0.7796 H   0  0  0  0  0  0  0  0  0  0  0  0
   -0.9918   11.6454    1.5683 H   0  0  0  0  0  0  0  0  0  0  0  0
    0.7845   11.2010    1.7619 H   0  0  0  0  0  0  0  0  0  0  0  0
    0.2782   13.6617    0.9684 H   0  0  0  0  0  0  0  0  0  0  0  0
    0.4103   11.5413   -2.4644 H   0  0  0  0  0  0  0  0  0  0  0  0
    3.3431   11.6586   -1.5244 H   0  0  0  0  0  0  0  0  0  0  0  0
    2.7067   10.8324   -3.0151 H   0  0  0  0  0  0  0  0  0  0  0  0
    3.7820   13.0002   -3.5331 H   0  0  0  0  0  0  0  0  0  0  0  0
    2.0225   12.9691   -3.9441 H   0  0  0  0  0  0  0  0  0  0  0  0
    2.5355   15.0732   -2.9104 H   0  0  0  0  0  0  0  0  0  0  0  0
    3.1480   14.3050   -0.3980 H   0  0  0  0  0  0  0  0  0  0  0  0
   -0.9303   14.5961   -2.0671 H   0  0  0  0  0  0  0  0  0  0  0  0
    0.2733   15.2726   -3.2162 H   0  0  0  0  0  0  0  0  0  0  0  0
   -0.0769   13.5107   -3.2162 H   0  0  0  0  0  0  0  0  0  0  0  0
    1.1068   15.0502    0.4598 H   0  0  0  0  0  0  0  0  0  0  0  0
    1.9639   16.0488   -0.7628 H   0  0  0  0  0  0  0  0  0  0  0  0
    0.1692   15.9737   -0.7628 H   0  0  0  0  0  0  0  0  0  0  0  0
    2.0711    9.8293    0.9142 H   0  0  0  0  0  0  0  0  0  0  0  0
    2.5335    8.7431   -0.4397 H   0  0  0  0  0  0  0  0  0  0  0  0
    3.0709   10.4571   -0.4397 H   0  0  0  0  0  0  0  0  0  0  0  0
    1.3043    9.3089   -2.9022 H   0  0  0  0  0  0  0  0  0  0  0  0
    0.9977    8.1151   -1.5182 H   0  0  0  0  0  0  0  0  0  0  0  0
   -1.0591    9.6964   -3.0856 H   0  0  0  0  0  0  0  0  0  0  0  0
   -0.7980    7.9084   -3.0500 H   0  0  0  0  0  0  0  0  0  0  0  0
   -1.3336    7.6603    0.6240 H   0  0  0  0  0  0  0  0  0  0  0  0
   -1.9315    6.6121   -0.7065 H   0  0  0  0  0  0  0  0  0  0  0  0
   -0.2270    7.1789   -0.7065 H   0  0  0  0  0  0  0  0  0  0  0  0
  1  2  1  0
  2  3  1  0
  3  4  1  0
  4  5  1  0
  5  6  1  0
  6  7  1  0
  7  8  1  0
  7  9  1  0
  2 10  1  0
 10 11  1  0
 11 12  1  0
 12 13  1  0
 13 14  1  6
 13 15  1  0
 15 16  1  0
 16 17  1  0
 17 18  2  0
 18 19  1  0
 19 20  1  0
 20 21  1  0
 21 22  1  0
 22 23  1  0
 22 24  1  0
 24 25  1  0
 24 26  1  0
 19 27  1  0
 27 28  1  1
 27 29  1  0
 29 30  1  0
 30 31  1  0
 31 32  1  1
  7  5  1  0
 31 10  1  0
 31 13  1  0
 27 15  1  0
 24 18  1  0
  1 33  1  0
  1 34  1  0
  1 35  1  0
  2 36  1  6
  3 37  1  0
  3 38  1  0
  4 39  1  0
  4 40  1  0
  5 41  1  1
  8 42  1  0
  8 43  1  0
  8 44  1  0
  9 45  1  0
  9 46  1  0
  9 47  1  0
 10 48  1  6
 11 49  1  0
 11 50  1  0
 12 51  1  0
 12 52  1  0
 14 53  1  0
 14 54  1  0
 14 55  1  0
 15 56  1  1
 16 57  1  0
 16 58  1  0
 17 59  1  0
 19 60  1  6
 20 61  1  0
 20 62  1  0
 21 63  1  0
 21 64  1  0
 22 65  1  6
 23 66  1  0
 25 67  1  0
 25 68  1  0
 25 69  1  0
 26 70  1  0
 26 71  1  0
 26 72  1  0
 28 73  1  0
 28 74  1  0
 28 75  1  0
 29 76  1  0
 29 77  1  0
 30 78  1  0
 30 79  1  0
 32 80  1  0
 32 81  1  0
 32 82  1  0
M  END
>  <meeko>  (12) 
{"is_sidechain": [false], "intermolecular_energy": 2.731, "internal_energy": -0.839}

$$$$
EPH_relaxed_0001_pdb2pqr_Repair_219_r2_0001_out
     RDKit          3D

 82 86  0  0  0  0  0  0  0  0999 V2000
   -2.1490    7.7320   -2.3650 C   0  0  0  0  0  0  0  0  0  0  0  0
   -2.3070    8.3790   -0.9860 C   0  0  2  0  0  0  0  0  0  0  0  0
   -3.7670    8.3430   -0.4920 C   0  0  0  0  0  0  0  0  0  0  0  0
   -4.7210    7.6140   -1.4420 C   0  0  0  0  0  0  0  0  0  0  0  0
   -5.9050    7.0500   -0.7160 C   0  0  2  0  0  0  0  0  0  0  0  0
   -6.5590    5.9660   -1.3880 O   0  0  0  0  0  0  0  0  0  0  0  0
   -7.3300    7.1670   -1.2220 C   0  0  0  0  0  0  0  0  0  0  0  0
   -7.6470    7.8690   -2.5050 C   0  0  0  0  0  0  0  0  0  0  0  0
   -8.4510    7.0320   -0.2400 C   0  0  0  0  0  0  0  0  0  0  0  0
   -1.8060    9.8170   -1.0250 C   0  0  1  0  0  0  0  0  0  0  0  0
   -1.4520   10.3660    0.3830 C   0  0  0  0  0  0  0  0  0  0  0  0
   -0.2380   11.3130    0.2020 C   0  0  0  0  0  0  0  0  0  0  0  0
   -0.1430   11.5380   -1.3260 C   0  0  1  0  0  0  0  0  0  0  0  0
   -1.2070   12.6370   -1.6360 C   0  0  0  0  0  0  0  0  0  0  0  0
    1.2670   11.9250   -1.8810 C   0  0  2  0  0  0  0  0  0  0  0  0
    1.8300   13.2580   -1.3580 C   0  0  0  0  0  0  0  0  0  0  0  0
    1.4880   14.4590   -2.1750 C   0  0  0  0  0  0  0  0  0  0  0  0
    1.0030   14.4390   -3.4310 C   0  0  0  0  0  0  0  0  0  0  0  0
    0.8430   13.1160   -4.1920 C   0  0  1  0  0  0  0  0  0  0  0  0
    1.4120   13.2720   -5.6270 C   0  0  0  0  0  0  0  0  0  0  0  0
    0.7990   14.4530   -6.3730 C   0  0  0  0  0  0  0  0  0  0  0  0
    1.0290   15.7580   -5.6140 C   0  0  2  0  0  0  0  0  0  0  0  0
    2.4300   16.0510   -5.6160 O   0  0  0  0  0  0  0  0  0  0  0  0
    0.5060   15.7160   -4.1520 C   0  0  0  0  0  0  0  0  0  0  0  0
   -1.0430   15.7010   -4.1530 C   0  0  0  0  0  0  0  0  0  0  0  0
    0.9260   17.0390   -3.4560 C   0  0  0  0  0  0  0  0  0  0  0  0
    1.3940   11.8210   -3.4540 C   0  0  1  0  0  0  0  0  0  0  0  0
    2.9110   11.6360   -3.7670 C   0  0  0  0  0  0  0  0  0  0  0  0
    0.6640   10.5510   -4.0310 C   0  0  0  0  0  0  0  0  0  0  0  0
   -0.6640   10.1490   -3.3630 C   0  0  0  0  0  0  0  0  0  0  0  0
   -0.5180   10.1000   -1.8390 C   0  0  2  0  0  0  0  0  0  0  0  0
    0.5300    8.9870   -1.4950 C   0  0  0  0  0  0  0  0  0  0  0  0
   -1.8896    6.6699   -2.2441 H   0  0  0  0  0  0  0  0  0  0  0  0
   -3.0944    7.8176   -2.9207 H   0  0  0  0  0  0  0  0  0  0  0  0
   -1.3494    8.2438   -2.9207 H   0  0  0  0  0  0  0  0  0  0  0  0
   -1.7033    7.7949   -0.2759 H   0  0  0  0  0  0  0  0  0  0  0  0
   -3.7912    7.8337    0.4827 H   0  0  0  0  0  0  0  0  0  0  0  0
   -4.1108    9.3860   -0.4295 H   0  0  0  0  0  0  0  0  0  0  0  0
   -5.0754    8.3233   -2.2045 H   0  0  0  0  0  0  0  0  0  0  0  0
   -4.1730    6.7793   -1.9034 H   0  0  0  0  0  0  0  0  0  0  0  0
   -5.4466    7.2791    0.2573 H   0  0  0  0  0  0  0  0  0  0  0  0
   -8.0906    8.8514   -2.2856 H   0  0  0  0  0  0  0  0  0  0  0  0
   -6.7231    8.0055   -3.0863 H   0  0  0  0  0  0  0  0  0  0  0  0
   -8.3603    7.2662   -3.0863 H   0  0  0  0  0  0  0  0  0  0  0  0
   -8.0500    7.0803    0.7832 H   0  0  0  0  0  0  0  0  0  0  0  0
   -9.1709    7.8499   -0.3906 H   0  0  0  0  0  0  0  0  0  0  0  0
   -8.9562    6.0665   -0.3906 H   0  0  0  0  0  0  0  0  0  0  0  0
   -2.6694   10.2990   -1.5068 H   0  0  0  0  0  0  0  0  0  0  0  0
   -2.3061   10.9204    0.7991 H   0  0  0  0  0  0  0  0  0  0  0  0
   -1.2137    9.5470    1.0776 H   0  0  0  0  0  0  0  0  0  0  0  0
   -0.4073   12.2658    0.7250 H   0  0  0  0  0  0  0  0  0  0  0  0
    0.6873   10.8896    0.6197 H   0  0  0  0  0  0  0  0  0  0  0  0
   -1.6002   13.0432   -0.6924 H   0  0  0  0  0  0  0  0  0  0  0  0
   -0.7400   13.4459   -2.2170 H   0  0  0  0  0  0  0  0  0  0  0  0
   -2.0306   12.1965   -2.2170 H   0  0  0  0  0  0  0  0  0  0  0  0
    1.9119   11.1416   -1.4564 H   0  0  0  0  0  0  0  0  0  0  0  0
    1.4402   13.4161   -0.3416 H   0  0  0  0  0  0  0  0  0  0  0  0
    2.9251   13.1632   -1.4002 H   0  0  0  0  0  0  0  0  0  0  0  0
    1.6455   15.4443   -1.7119 H   0  0  0  0  0  0  0  0  0  0  0  0
   -0.2385   12.9206   -4.2388 H   0  0  0  0  0  0  0  0  0  0  0  0
    2.4996   13.4226   -5.5608 H   0  0  0  0  0  0  0  0  0  0  0  0
    1.1637   12.3579   -6.1863 H   0  0  0  0  0  0  0  0  0  0  0  0
    1.2615   14.5292   -7.3681 H   0  0  0  0  0  0  0  0  0  0  0  0
   -0.2845   14.2863   -6.4636 H   0  0  0  0  0  0  0  0  0  0  0  0
    0.4578   16.5447   -6.1286 H   0  0  0  0  0  0  0  0  0  0  0  0
    2.5380   16.9710   -5.9110 H   0  0  0  0  0  0  0  0  0  0  0  0
   -1.4103   15.6974   -3.1161 H   0  0  0  0  0  0  0  0  0  0  0  0
   -1.4180   16.5956   -4.6718 H   0  0  0  0  0  0  0  0  0  0  0  0
   -1.4006   14.7994   -4.6718 H   0  0  0  0  0  0  0  0  0  0  0  0
    0.8845   16.9083   -2.3646 H   0  0  0  0  0  0  0  0  0  0  0  0
    1.9515   17.3012   -3.7552 H   0  0  0  0  0  0  0  0  0  0  0  0
    0.2395   17.8447   -3.7552 H   0  0  0  0  0  0  0  0  0  0  0  0
    3.4741   11.5673   -2.8246 H   0  0  0  0  0  0  0  0  0  0  0  0
    3.0556   10.7136   -4.3486 H   0  0  0  0  0  0  0  0  0  0  0  0
    3.2730   12.4967   -4.3486 H   0  0  0  0  0  0  0  0  0  0  0  0
    0.4572   10.7408   -5.0946 H   0  0  0  0  0  0  0  0  0  0  0  0
    1.3490    9.7126   -3.8364 H   0  0  0  0  0  0  0  0  0  0  0  0
   -1.4371   10.8856   -3.6270 H   0  0  0  0  0  0  0  0  0  0  0  0
   -0.9478    9.1482   -3.7206 H   0  0  0  0  0  0  0  0  0  0  0  0
    0.6191    8.8923   -0.4027 H   0  0  0  0  0  0  0  0  0  0  0  0
    0.1994    8.0280   -1.9204 H   0  0  0  0  0  0  0  0  0  0  0  0
    1.5072    9.2594   -1.9204 H   0  0  0  0  0  0  0  0  0  0  0  0
  1  2  1  0
  2  3  1  0
  3  4  1  0
  4  5  1  0
  5  6  1  0
  6  7  1  0
  7  8  1  0
  7  9  1  0
  2 10  1  0
 10 11  1  0
 11 12  1  0
 12 13  1  0
 13 14  1  6
 13 15  1  0
 15 16  1  0
 16 17  1  0
 17 18  2  0
 18 19  1  0
 19 20  1  0
 20 21  1  0
 21 22  1  0
 22 23  1  0
 22 24  1  0
 24 25  1  0
 24 26  1  0
 19 27  1  0
 27 28  1  1
 27 29  1  0
 29 30  1  0
 30 31  1  0
 31 32  1  6
  7  5  1  0
 31 10  1  0
 31 13  1  0
 27 15  1  0
 24 18  1  0
  1 33  1  0
  1 34  1  0
  1 35  1  0
  2 36  1  1
  3 37  1  0
  3 38  1  0
  4 39  1  0
  4 40  1  0
  5 41  1  1
  8 42  1  0
  8 43  1  0
  8 44  1  0
  9 45  1  0
  9 46  1  0
  9 47  1  0
 10 48  1  6
 11 49  1  0
 11 50  1  0
 12 51  1  0
 12 52  1  0
 14 53  1  0
 14 54  1  0
 14 55  1  0
 15 56  1  1
 16 57  1  0
 16 58  1  0
 17 59  1  0
 19 60  1  6
 20 61  1  0
 20 62  1  0
 21 63  1  0
 21 64  1  0
 22 65  1  6
 23 66  1  0
 25 67  1  0
 25 68  1  0
 25 69  1  0
 26 70  1  0
 26 71  1  0
 26 72  1  0
 28 73  1  0
 28 74  1  0
 28 75  1  0
 29 76  1  0
 29 77  1  0
 30 78  1  0
 30 79  1  0
 32 80  1  0
 32 81  1  0
 32 82  1  0
M  END
>  <meeko>  (13) 
{"is_sidechain": [false], "intermolecular_energy": 2.731, "internal_energy": -0.839}

$$$$
EPH_relaxed_0001_pdb2pqr_Repair_219_r2_0001_out
     RDKit          3D

 82 86  0  0  0  0  0  0  0  0999 V2000
    2.8610   18.4920   -3.5540 C   0  0  0  0  0  0  0  0  0  0  0  0
    2.0640   18.2800   -2.2650 C   0  0  2  0  0  0  0  0  0  0  0  0
    2.3810   19.3530   -1.2030 C   0  0  0  0  0  0  0  0  0  0  0  0
    2.1190   18.8920    0.2340 C   0  0  0  0  0  0  0  0  0  0  0  0
    2.7430   19.8180    1.2340 C   0  0  2  0  0  0  0  0  0  0  0  0
    4.0950   20.1940    0.9400 O   0  0  0  0  0  0  0  0  0  0  0  0
    3.8980   19.4210    2.1350 C   0  0  0  0  0  0  0  0  0  0  0  0
    4.4960   18.0500    2.0780 C   0  0  0  0  0  0  0  0  0  0  0  0
    4.1190   20.1940    3.3970 C   0  0  0  0  0  0  0  0  0  0  0  0
    2.3440   16.8920   -1.7020 C   0  0  1  0  0  0  0  0  0  0  0  0
    2.9650   16.9370   -0.2800 C   0  0  0  0  0  0  0  0  0  0  0  0
    2.4080   15.7120    0.4900 C   0  0  0  0  0  0  0  0  0  0  0  0
    1.7590   14.8280   -0.6010 C   0  0  1  0  0  0  0  0  0  0  0  0
    2.9470   14.0440   -1.2420 C   0  0  0  0  0  0  0  0  0  0  0  0
    0.6220   13.8650   -0.1240 C   0  0  2  0  0  0  0  0  0  0  0  0
    1.0570   12.7950    0.8920 C   0  0  0  0  0  0  0  0  0  0  0  0
    1.5180   11.5040    0.3010 C   0  0  0  0  0  0  0  0  0  0  0  0
    1.3160   11.1090   -0.9690 C   0  0  0  0  0  0  0  0  0  0  0  0
    0.4730   11.9550   -1.9320 C   0  0  1  0  0  0  0  0  0  0  0  0
   -0.5280   11.0390   -2.6860 C   0  0  0  0  0  0  0  0  0  0  0  0
    0.1610    9.8720   -3.3850 C   0  0  0  0  0  0  0  0  0  0  0  0
    0.9410    9.0210   -2.3860 C   0  0  2  0  0  0  0  0  0  0  0  0
    0.0150    8.3830   -1.5020 O   0  0  0  0  0  0  0  0  0  0  0  0
    1.9740    9.8380   -1.5610 C   0  0  0  0  0  0  0  0  0  0  0  0
    3.1430   10.2780   -2.4770 C   0  0  0  0  0  0  0  0  0  0  0  0
    2.5900    8.8920   -0.4950 C   0  0  0  0  0  0  0  0  0  0  0  0
   -0.2280   13.2340   -1.3000 C   0  0  1  0  0  0  0  0  0  0  0  0
   -1.6070   12.8380   -0.6890 C   0  0  0  0  0  0  0  0  0  0  0  0
   -0.5310   14.2720   -2.4440 C   0  0  0  0  0  0  0  0  0  0  0  0
    0.5880   15.2740   -2.7870 C   0  0  0  0  0  0  0  0  0  0  0  0
    1.1350   15.9400   -1.5210 C   0  0  2  0  0  0  0  0  0  0  0  0
   -0.0320   16.7540   -0.8660 C   0  0  0  0  0  0  0  0  0  0  0  0
    3.8962   18.7674   -3.3039 H   0  0  0  0  0  0  0  0  0  0  0  0
    2.8607   17.5626   -4.1423 H   0  0  0  0  0  0  0  0  0  0  0  0
    2.3990   19.2985   -4.1423 H   0  0  0  0  0  0  0  0  0  0  0  0
    0.9972   18.3700   -2.5177 H   0  0  0  0  0  0  0  0  0  0  0  0
    3.4426   19.6269   -1.2919 H   0  0  0  0  0  0  0  0  0  0  0  0
    1.7110   20.2040   -1.3952 H   0  0  0  0  0  0  0  0  0  0  0  0
    1.0330   18.8603    0.4062 H   0  0  0  0  0  0  0  0  0  0  0  0
    2.5668   17.8955    0.3622 H   0  0  0  0  0  0  0  0  0  0  0  0
    1.7694   20.2846    1.4446 H   0  0  0  0  0  0  0  0  0  0  0  0
    4.6583   17.6780    3.1004 H   0  0  0  0  0  0  0  0  0  0  0  0
    3.8114   17.3732    1.5459 H   0  0  0  0  0  0  0  0  0  0  0  0
    5.4578   18.0913    1.5459 H   0  0  0  0  0  0  0  0  0  0  0  0
    3.9327   19.5424    4.2635 H   0  0  0  0  0  0  0  0  0  0  0  0
    5.1569   20.5570    3.4276 H   0  0  0  0  0  0  0  0  0  0  0  0
    3.4298   21.0508    3.4276 H   0  0  0  0  0  0  0  0  0  0  0  0
    3.0114   16.5069   -2.4870 H   0  0  0  0  0  0  0  0  0  0  0  0
    4.0616   16.8780   -0.3435 H   0  0  0  0  0  0  0  0  0  0  0  0
    2.7094   17.8758    0.2332 H   0  0  0  0  0  0  0  0  0  0  0  0
    3.2199   15.1699    0.9970 H   0  0  0  0  0  0  0  0  0  0  0  0
    1.6918   16.0017    1.2730 H   0  0  0  0  0  0  0  0  0  0  0  0
    3.5815   13.6253   -0.4469 H   0  0  0  0  0  0  0  0  0  0  0  0
    2.5536   13.2275   -1.8654 H   0  0  0  0  0  0  0  0  0  0  0  0
    3.5430   14.7268   -1.8654 H   0  0  0  0  0  0  0  0  0  0  0  0
   -0.0473   14.5435    0.4253 H   0  0  0  0  0  0  0  0  0  0  0  0
    1.8826   13.2093    1.4894 H   0  0  0  0  0  0  0  0  0  0  0  0
    0.1613   12.5558    1.4841 H   0  0  0  0  0  0  0  0  0  0  0  0
    2.0697   10.8174    0.9599 H   0  0  0  0  0  0  0  0  0  0  0  0
    1.1821   12.4004   -2.6453 H   0  0  0  0  0  0  0  0  0  0  0  0
   -1.2534   10.6384   -1.9626 H   0  0  0  0  0  0  0  0  0  0  0  0
   -1.0211   11.6473   -3.4585 H   0  0  0  0  0  0  0  0  0  0  0  0
   -0.5995    9.2459   -3.8746 H   0  0  0  0  0  0  0  0  0  0  0  0
    0.8650   10.2742   -4.1284 H   0  0  0  0  0  0  0  0  0  0  0  0
    1.5152    8.2798   -2.9613 H   0  0  0  0  0  0  0  0  0  0  0  0
    0.0070    7.4350   -1.7180 H   0  0  0  0  0  0  0  0  0  0  0  0
    3.9937   10.5982   -1.8575 H   0  0  0  0  0  0  0  0  0  0  0  0
    3.4491    9.4336   -3.1120 H   0  0  0  0  0  0  0  0  0  0  0  0
    2.8163   11.1147   -3.1120 H   0  0  0  0  0  0  0  0  0  0  0  0
    2.3469    9.2653    0.5108 H   0  0  0  0  0  0  0  0  0  0  0  0
    2.1771    7.8802   -0.6203 H   0  0  0  0  0  0  0  0  0  0  0  0
    3.6824    8.8603   -0.6203 H   0  0  0  0  0  0  0  0  0  0  0  0
   -1.5407   12.8570    0.4088 H   0  0  0  0  0  0  0  0  0  0  0  0
   -2.3744   13.5521   -1.0224 H   0  0  0  0  0  0  0  0  0  0  0  0
   -1.8786   11.8256   -1.0224 H   0  0  0  0  0  0  0  0  0  0  0  0
   -0.7599   13.7033   -3.3573 H   0  0  0  0  0  0  0  0  0  0  0  0
   -1.3605   14.8860   -2.0633 H   0  0  0  0  0  0  0  0  0  0  0  0
    1.4052   14.7408   -3.2948 H   0  0  0  0  0  0  0  0  0  0  0  0
    0.1717   16.0539   -3.4415 H   0  0  0  0  0  0  0  0  0  0  0  0
    0.0505   16.6964    0.2294 H   0  0  0  0  0  0  0  0  0  0  0  0
    0.0308   17.8052   -1.1837 H   0  0  0  0  0  0  0  0  0  0  0  0
   -0.9969   16.3320   -1.1837 H   0  0  0  0  0  0  0  0  0  0  0  0
  1  2  1  0
  2  3  1  0
  3  4  1  0
  4  5  1  0
  5  6  1  0
  6  7  1  0
  7  8  1  0
  7  9  1  0
  2 10  1  0
 10 11  1  0
 11 12  1  0
 12 13  1  0
 13 14  1  6
 13 15  1  0
 15 16  1  0
 16 17  1  0
 17 18  2  0
 18 19  1  0
 19 20  1  0
 20 21  1  0
 21 22  1  0
 22 23  1  0
 22 24  1  0
 24 25  1  0
 24 26  1  0
 19 27  1  0
 27 28  1  1
 27 29  1  0
 29 30  1  0
 30 31  1  0
 31 32  1  1
  7  5  1  0
 31 10  1  0
 31 13  1  0
 27 15  1  0
 24 18  1  0
  1 33  1  0
  1 34  1  0
  1 35  1  0
  2 36  1  6
  3 37  1  0
  3 38  1  0
  4 39  1  0
  4 40  1  0
  5 41  1  1
  8 42  1  0
  8 43  1  0
  8 44  1  0
  9 45  1  0
  9 46  1  0
  9 47  1  0
 10 48  1  6
 11 49  1  0
 11 50  1  0
 12 51  1  0
 12 52  1  0
 14 53  1  0
 14 54  1  0
 14 55  1  0
 15 56  1  1
 16 57  1  0
 16 58  1  0
 17 59  1  0
 19 60  1  6
 20 61  1  0
 20 62  1  0
 21 63  1  0
 21 64  1  0
 22 65  1  6
 23 66  1  0
 25 67  1  0
 25 68  1  0
 25 69  1  0
 26 70  1  0
 26 71  1  0
 26 72  1  0
 28 73  1  0
 28 74  1  0
 28 75  1  0
 29 76  1  0
 29 77  1  0
 30 78  1  0
 30 79  1  0
 32 80  1  0
 32 81  1  0
 32 82  1  0
M  END
>  <meeko>  (14) 
{"is_sidechain": [false], "intermolecular_energy": 2.731, "internal_energy": -0.839}

$$$$
EPH_relaxed_0001_pdb2pqr_Repair_219_r2_0001_out
     RDKit          3D

 82 86  0  0  0  0  0  0  0  0999 V2000
   -1.5840    9.4030   -0.1950 C   0  0  0  0  0  0  0  0  0  0  0  0
   -1.4330   10.4840   -1.2690 C   0  0  2  0  0  0  0  0  0  0  0  0
   -0.6290    9.9850   -2.4860 C   0  0  0  0  0  0  0  0  0  0  0  0
    0.7000    9.3210   -2.1160 C   0  0  0  0  0  0  0  0  0  0  0  0
    1.8460    9.9120   -2.8800 C   0  0  2  0  0  0  0  0  0  0  0  0
    3.0470    9.1280   -2.8600 O   0  0  0  0  0  0  0  0  0  0  0  0
    3.1180   10.4150   -2.2240 C   0  0  0  0  0  0  0  0  0  0  0  0
    3.3090   10.3520   -0.7410 C   0  0  0  0  0  0  0  0  0  0  0  0
    3.9610   11.4060   -2.9640 C   0  0  0  0  0  0  0  0  0  0  0  0
   -0.7640   11.7180   -0.6740 C   0  0  1  0  0  0  0  0  0  0  0  0
    0.3950   11.3600    0.2960 C   0  0  0  0  0  0  0  0  0  0  0  0
    1.4750   12.4600    0.1270 C   0  0  0  0  0  0  0  0  0  0  0  0
    0.7700   13.5790   -0.6750 C   0  0  1  0  0  0  0  0  0  0  0  0
   -0.0540   14.3740    0.3850 C   0  0  0  0  0  0  0  0  0  0  0  0
    1.6980   14.5200   -1.5100 C   0  0  2  0  0  0  0  0  0  0  0  0
    2.7020   15.3450   -0.6860 C   0  0  0  0  0  0  0  0  0  0  0  0
    2.2140   16.6850   -0.2420 C   0  0  0  0  0  0  0  0  0  0  0  0
    1.1340   17.3240   -0.7270 C   0  0  0  0  0  0  0  0  0  0  0  0
    0.3330   16.7400   -1.8980 C   0  0  1  0  0  0  0  0  0  0  0  0
    0.0520   17.8540   -2.9400 C   0  0  0  0  0  0  0  0  0  0  0  0
   -0.6230   19.0760   -2.3230 C   0  0  0  0  0  0  0  0  0  0  0  0
    0.2310   19.6620   -1.2020 C   0  0  2  0  0  0  0  0  0  0  0  0
    1.4330   20.1940   -1.7680 O   0  0  0  0  0  0  0  0  0  0  0  0
    0.5860   18.6280   -0.0970 C   0  0  0  0  0  0  0  0  0  0  0  0
   -0.6850   18.2790    0.7160 C   0  0  0  0  0  0  0  0  0  0  0  0
    1.5640   19.3090    0.8970 C   0  0  0  0  0  0  0  0  0  0  0  0
    0.9310   15.4240   -2.5590 C   0  0  1  0  0  0  0  0  0  0  0  0
    1.9660   15.8040   -3.6610 C   0  0  0  0  0  0  0  0  0  0  0  0
   -0.2260   14.6430   -3.2870 C   0  0  0  0  0  0  0  0  0  0  0  0
   -1.0300   13.6400   -2.4380 C   0  0  0  0  0  0  0  0  0  0  0  0
   -0.0950   12.7090   -1.6590 C   0  0  2  0  0  0  0  0  0  0  0  0
    0.7310   11.8800   -2.7000 C   0  0  0  0  0  0  0  0  0  0  0  0
   -1.5195    9.8645    0.8014 H   0  0  0  0  0  0  0  0  0  0  0  0
   -2.5600    8.9082   -0.3074 H   0  0  0  0  0  0  0  0  0  0  0  0
   -0.7810    8.6597   -0.3074 H   0  0  0  0  0  0  0  0  0  0  0  0
   -2.4421   10.7419   -1.6229 H   0  0  0  0  0  0  0  0  0  0  0  0
   -1.2429    9.2530   -3.0312 H   0  0  0  0  0  0  0  0  0  0  0  0
   -0.3880   10.8682   -3.0958 H   0  0  0  0  0  0  0  0  0  0  0  0
    0.8801    9.4590   -1.0396 H   0  0  0  0  0  0  0  0  0  0  0  0
    0.6325    8.2529   -2.3704 H   0  0  0  0  0  0  0  0  0  0  0  0
    1.1569   10.3728   -3.6031 H   0  0  0  0  0  0  0  0  0  0  0  0
    2.3798   10.6585   -0.2383 H   0  0  0  0  0  0  0  0  0  0  0  0
    3.5624    9.3227   -0.4473 H   0  0  0  0  0  0  0  0  0  0  0  0
    4.1251   11.0286   -0.4473 H   0  0  0  0  0  0  0  0  0  0  0  0
    4.4997   12.0393   -2.2438 H   0  0  0  0  0  0  0  0  0  0  0  0
    4.6855   10.8716   -3.5960 H   0  0  0  0  0  0  0  0  0  0  0  0
    3.3173   12.0354   -3.5960 H   0  0  0  0  0  0  0  0  0  0  0  0
   -1.6369   12.1905   -0.1998 H   0  0  0  0  0  0  0  0  0  0  0  0
    0.0296   11.3440    1.3334 H   0  0  0  0  0  0  0  0  0  0  0  0
    0.8059   10.3648    0.0706 H   0  0  0  0  0  0  0  0  0  0  0  0
    1.8052   12.8339    1.1074 H   0  0  0  0  0  0  0  0  0  0  0  0
    2.3755   12.0858   -0.3821 H   0  0  0  0  0  0  0  0  0  0  0  0
    0.2594   14.0716    1.3951 H   0  0  0  0  0  0  0  0  0  0  0  0
    0.1225   15.4518    0.2536 H   0  0  0  0  0  0  0  0  0  0  0  0
   -1.1248   14.1591    0.2536 H   0  0  0  0  0  0  0  0  0  0  0  0
    2.3014   13.8037   -2.0869 H   0  0  0  0  0  0  0  0  0  0  0  0
    2.9640   14.7644    0.2108 H   0  0  0  0  0  0  0  0  0  0  0  0
    3.5565   15.5374   -1.3514 H   0  0  0  0  0  0  0  0  0  0  0  0
    2.7862   17.1925    0.5486 H   0  0  0  0  0  0  0  0  0  0  0  0
   -0.6147   16.3820   -1.4693 H   0  0  0  0  0  0  0  0  0  0  0  0
    1.0068   18.1670   -3.3876 H   0  0  0  0  0  0  0  0  0  0  0  0
   -0.6327   17.4400   -3.6949 H   0  0  0  0  0  0  0  0  0  0  0  0
   -0.7678   19.8391   -3.1019 H   0  0  0  0  0  0  0  0  0  0  0  0
   -1.5915   18.7676   -1.9024 H   0  0  0  0  0  0  0  0  0  0  0  0
   -0.3610   20.4504   -0.7142 H   0  0  0  0  0  0  0  0  0  0  0  0
    1.2270   21.0770   -2.1180 H   0  0  0  0  0  0  0  0  0  0  0  0
   -0.4609   18.3405    1.7912 H   0  0  0  0  0  0  0  0  0  0  0  0
   -1.4863   18.9904    0.4672 H   0  0  0  0  0  0  0  0  0  0  0  0
   -1.0106   17.2582    0.4672 H   0  0  0  0  0  0  0  0  0  0  0  0
    1.2499   19.0903    1.9283 H   0  0  0  0  0  0  0  0  0  0  0  0
    2.5809   18.9226    0.7336 H   0  0  0  0  0  0  0  0  0  0  0  0
    1.5544   20.3968    0.7336 H   0  0  0  0  0  0  0  0  0  0  0  0
    2.8977   16.1461   -3.1867 H   0  0  0  0  0  0  0  0  0  0  0  0
    2.1749   14.9239   -4.2870 H   0  0  0  0  0  0  0  0  0  0  0  0
    1.5558   16.6102   -4.2870 H   0  0  0  0  0  0  0  0  0  0  0  0
   -0.9335   15.3877   -3.6806 H   0  0  0  0  0  0  0  0  0  0  0  0
    0.2763   14.0335   -4.0526 H   0  0  0  0  0  0  0  0  0  0  0  0
   -1.6605   14.1942   -1.7271 H   0  0  0  0  0  0  0  0  0  0  0  0
   -1.6523   13.0307   -3.1100 H   0  0  0  0  0  0  0  0  0  0  0  0
    1.4109   11.1976   -2.1688 H   0  0  0  0  0  0  0  0  0  0  0  0
    0.0449   11.2961   -3.3311 H   0  0  0  0  0  0  0  0  0  0  0  0
    1.3173   12.5640   -3.3311 H   0  0  0  0  0  0  0  0  0  0  0  0
  1  2  1  0
  2  3  1  0
  3  4  1  0
  4  5  1  0
  5  6  1  0
  6  7  1  0
  7  8  1  0
  7  9  1  0
  2 10  1  0
 10 11  1  0
 11 12  1  0
 12 13  1  0
 13 14  1  1
 13 15  1  0
 15 16  1  0
 16 17  1  0
 17 18  2  0
 18 19  1  0
 19 20  1  0
 20 21  1  0
 21 22  1  0
 22 23  1  0
 22 24  1  0
 24 25  1  0
 24 26  1  0
 19 27  1  0
 27 28  1  6
 27 29  1  0
 29 30  1  0
 30 31  1  0
 31 32  1  6
  7  5  1  0
 31 10  1  0
 31 13  1  0
 27 15  1  0
 24 18  1  0
  1 33  1  0
  1 34  1  0
  1 35  1  0
  2 36  1  6
  3 37  1  0
  3 38  1  0
  4 39  1  0
  4 40  1  0
  5 41  1  6
  8 42  1  0
  8 43  1  0
  8 44  1  0
  9 45  1  0
  9 46  1  0
  9 47  1  0
 10 48  1  1
 11 49  1  0
 11 50  1  0
 12 51  1  0
 12 52  1  0
 14 53  1  0
 14 54  1  0
 14 55  1  0
 15 56  1  6
 16 57  1  0
 16 58  1  0
 17 59  1  0
 19 60  1  1
 20 61  1  0
 20 62  1  0
 21 63  1  0
 21 64  1  0
 22 65  1  1
 23 66  1  0
 25 67  1  0
 25 68  1  0
 25 69  1  0
 26 70  1  0
 26 71  1  0
 26 72  1  0
 28 73  1  0
 28 74  1  0
 28 75  1  0
 29 76  1  0
 29 77  1  0
 30 78  1  0
 30 79  1  0
 32 80  1  0
 32 81  1  0
 32 82  1  0
M  END
>  <meeko>  (15) 
{"is_sidechain": [false], "intermolecular_energy": 2.731, "internal_energy": -0.839}

$$$$
EPH_relaxed_0001_pdb2pqr_Repair_219_r2_0001_out
     RDKit          3D

 82 86  0  0  0  0  0  0  0  0999 V2000
    0.1620    9.8760   -4.5760 C   0  0  0  0  0  0  0  0  0  0  0  0
    1.2320   10.6160   -3.7700 C   0  0  2  0  0  0  0  0  0  0  0  0
    1.7270    9.7910   -2.5650 C   0  0  0  0  0  0  0  0  0  0  0  0
    0.7550    8.6900   -2.1340 C   0  0  0  0  0  0  0  0  0  0  0  0
   -0.1270    9.1380   -1.0080 C   0  0  2  0  0  0  0  0  0  0  0  0
   -0.6970    8.0750   -0.2340 O   0  0  0  0  0  0  0  0  0  0  0  0
   -1.6230    8.8920   -0.9680 C   0  0  0  0  0  0  0  0  0  0  0  0
   -2.3250    8.1700   -2.0760 C   0  0  0  0  0  0  0  0  0  0  0  0
   -2.4710    9.7700   -0.1020 C   0  0  0  0  0  0  0  0  0  0  0  0
    0.6890   11.9590   -3.2950 C   0  0  1  0  0  0  0  0  0  0  0  0
   -0.7960   11.8780   -2.8500 C   0  0  0  0  0  0  0  0  0  0  0  0
   -0.9620   12.8650   -1.6660 C   0  0  0  0  0  0  0  0  0  0  0  0
    0.3290   13.7160   -1.6830 C   0  0  1  0  0  0  0  0  0  0  0  0
    0.0830   14.7970   -2.7830 C   0  0  0  0  0  0  0  0  0  0  0  0
    0.7490   14.3620   -0.3230 C   0  0  2  0  0  0  0  0  0  0  0  0
   -0.2550   15.3740    0.2560 C   0  0  0  0  0  0  0  0  0  0  0  0
   -0.0430   16.7920   -0.1610 C   0  0  0  0  0  0  0  0  0  0  0  0
    1.0720   17.2810   -0.7330 C   0  0  0  0  0  0  0  0  0  0  0  0
    2.3110   16.3960   -0.9270 C   0  0  1  0  0  0  0  0  0  0  0  0
    3.5750   17.1660   -0.4650 C   0  0  0  0  0  0  0  0  0  0  0  0
    3.7150   18.5240   -1.1460 C   0  0  0  0  0  0  0  0  0  0  0  0
    2.4910   19.3960   -0.8820 C   0  0  2  0  0  0  0  0  0  0  0  0
    2.4490   19.7230    0.5100 O   0  0  0  0  0  0  0  0  0  0  0  0
    1.1550   18.7200   -1.3000 C   0  0  0  0  0  0  0  0  0  0  0  0
    1.0730   18.6390   -2.8440 C   0  0  0  0  0  0  0  0  0  0  0  0
   -0.0090   19.6430   -0.8510 C   0  0  0  0  0  0  0  0  0  0  0  0
    2.2240   14.9360   -0.3060 C   0  0  1  0  0  0  0  0  0  0  0  0
    2.6730   14.9660    1.1880 C   0  0  0  0  0  0  0  0  0  0  0  0
    3.2400   13.9960   -1.0560 C   0  0  0  0  0  0  0  0  0  0  0  0
    2.7280   13.2930   -2.3270 C   0  0  0  0  0  0  0  0  0  0  0  0
    1.3800   12.6130   -2.0720 C   0  0  2  0  0  0  0  0  0  0  0  0
    1.6000   11.5060   -0.9860 C   0  0  0  0  0  0  0  0  0  0  0  0
   -0.5436    9.3880   -3.8875 H   0  0  0  0  0  0  0  0  0  0  0  0
   -0.3806   10.5927   -5.2099 H   0  0  0  0  0  0  0  0  0  0  0  0
    0.6411    9.1153   -5.2099 H   0  0  0  0  0  0  0  0  0  0  0  0
    2.0936   10.7775   -4.4345 H   0  0  0  0  0  0  0  0  0  0  0  0
    2.6852    9.3227   -2.8345 H   0  0  0  0  0  0  0  0  0  0  0  0
    1.8237   10.4852   -1.7173 H   0  0  0  0  0  0  0  0  0  0  0  0
    0.1248    8.4149   -2.9926 H   0  0  0  0  0  0  0  0  0  0  0  0
    1.3448    7.8293   -1.7857 H   0  0  0  0  0  0  0  0  0  0  0  0
    0.4750   10.0480   -0.8682 H   0  0  0  0  0  0  0  0  0  0  0  0
   -3.0319    7.4429   -1.6498 H   0  0  0  0  0  0  0  0  0  0  0  0
   -2.8734    8.8944   -2.6961 H   0  0  0  0  0  0  0  0  0  0  0  0
   -1.5855    7.6422   -2.6961 H   0  0  0  0  0  0  0  0  0  0  0  0
   -2.2619    9.5535    0.9560 H   0  0  0  0  0  0  0  0  0  0  0  0
   -2.2412   10.8249   -0.3128 H   0  0  0  0  0  0  0  0  0  0  0  0
   -3.5332    9.5770   -0.3128 H   0  0  0  0  0  0  0  0  0  0  0  0
    0.8713   12.5619   -4.1968 H   0  0  0  0  0  0  0  0  0  0  0  0
   -1.4567   12.1678   -3.6803 H   0  0  0  0  0  0  0  0  0  0  0  0
   -1.0637   10.8538   -2.5512 H   0  0  0  0  0  0  0  0  0  0  0  0
   -1.8479   13.5006   -1.8117 H   0  0  0  0  0  0  0  0  0  0  0  0
   -1.1064   12.3455   -0.7072 H   0  0  0  0  0  0  0  0  0  0  0  0
   -0.1368   15.7630   -2.3051 H   0  0  0  0  0  0  0  0  0  0  0  0
    0.9820   14.8940   -3.4094 H   0  0  0  0  0  0  0  0  0  0  0  0
   -0.7695   14.4954   -3.4094 H   0  0  0  0  0  0  0  0  0  0  0  0
    0.7339   13.5013    0.3618 H   0  0  0  0  0  0  0  0  0  0  0  0
   -1.2637   15.0729   -0.0633 H   0  0  0  0  0  0  0  0  0  0  0  0
   -0.1138   15.3530    1.3467 H   0  0  0  0  0  0  0  0  0  0  0  0
   -0.8690   17.4969    0.0145 H   0  0  0  0  0  0  0  0  0  0  0  0
    2.3729   16.1917   -2.0061 H   0  0  0  0  0  0  0  0  0  0  0  0
    3.5153   17.3214    0.6223 H   0  0  0  0  0  0  0  0  0  0  0  0
    4.4525   16.5626   -0.7405 H   0  0  0  0  0  0  0  0  0  0  0  0
    4.6095   19.0317   -0.7559 H   0  0  0  0  0  0  0  0  0  0  0  0
    3.8050   18.3649   -2.2307 H   0  0  0  0  0  0  0  0  0  0  0  0
    2.5917   20.3005   -1.4998 H   0  0  0  0  0  0  0  0  0  0  0  0
    2.3260   20.6850    0.5830 H   0  0  0  0  0  0  0  0  0  0  0  0
    0.3178   17.8930   -3.1324 H   0  0  0  0  0  0  0  0  0  0  0  0
    0.7903   19.6222   -3.2483 H   0  0  0  0  0  0  0  0  0  0  0  0
    2.0526   18.3442   -3.2483 H   0  0  0  0  0  0  0  0  0  0  0  0
   -0.0489   19.6746    0.2478 H   0  0  0  0  0  0  0  0  0  0  0  0
    0.1565   20.6580   -1.2413 H   0  0  0  0  0  0  0  0  0  0  0  0
   -0.9596   19.2505   -1.2413 H   0  0  0  0  0  0  0  0  0  0  0  0
    1.7877   14.9068    1.8382 H   0  0  0  0  0  0  0  0  0  0  0  0
    3.3338   14.1100    1.3895 H   0  0  0  0  0  0  0  0  0  0  0  0
    3.2140   15.9023    1.3895 H   0  0  0  0  0  0  0  0  0  0  0  0
    4.1098   14.6062   -1.3408 H   0  0  0  0  0  0  0  0  0  0  0  0
    3.4584   13.1843   -0.3465 H   0  0  0  0  0  0  0  0  0  0  0  0
    2.6094   14.0382   -3.1274 H   0  0  0  0  0  0  0  0  0  0  0  0
    3.4583   12.5248   -2.6212 H   0  0  0  0  0  0  0  0  0  0  0  0
    1.5113   11.9521    0.0155 H   0  0  0  0  0  0  0  0  0  0  0  0
    0.8407   10.7191   -1.1054 H   0  0  0  0  0  0  0  0  0  0  0  0
    2.6025   11.0693   -1.1054 H   0  0  0  0  0  0  0  0  0  0  0  0
  1  2  1  0
  2  3  1  0
  3  4  1  0
  4  5  1  0
  5  6  1  0
  6  7  1  0
  7  8  1  0
  7  9  1  0
  2 10  1  0
 10 11  1  0
 11 12  1  0
 12 13  1  0
 13 14  1  6
 13 15  1  0
 15 16  1  0
 16 17  1  0
 17 18  2  0
 18 19  1  0
 19 20  1  0
 20 21  1  0
 21 22  1  0
 22 23  1  0
 22 24  1  0
 24 25  1  0
 24 26  1  0
 19 27  1  0
 27 28  1  1
 27 29  1  0
 29 30  1  0
 30 31  1  0
 31 32  1  1
  7  5  1  0
 31 10  1  0
 31 13  1  0
 27 15  1  0
 24 18  1  0
  1 33  1  0
  1 34  1  0
  1 35  1  0
  2 36  1  6
  3 37  1  0
  3 38  1  0
  4 39  1  0
  4 40  1  0
  5 41  1  1
  8 42  1  0
  8 43  1  0
  8 44  1  0
  9 45  1  0
  9 46  1  0
  9 47  1  0
 10 48  1  6
 11 49  1  0
 11 50  1  0
 12 51  1  0
 12 52  1  0
 14 53  1  0
 14 54  1  0
 14 55  1  0
 15 56  1  1
 16 57  1  0
 16 58  1  0
 17 59  1  0
 19 60  1  6
 20 61  1  0
 20 62  1  0
 21 63  1  0
 21 64  1  0
 22 65  1  6
 23 66  1  0
 25 67  1  0
 25 68  1  0
 25 69  1  0
 26 70  1  0
 26 71  1  0
 26 72  1  0
 28 73  1  0
 28 74  1  0
 28 75  1  0
 29 76  1  0
 29 77  1  0
 30 78  1  0
 30 79  1  0
 32 80  1  0
 32 81  1  0
 32 82  1  0
M  END
>  <meeko>  (16) 
{"is_sidechain": [false], "intermolecular_energy": 2.731, "internal_energy": -0.839}

$$$$
EPH_relaxed_0001_pdb2pqr_Repair_219_r2_0001_out
     RDKit          3D

 82 86  0  0  0  0  0  0  0  0999 V2000
    0.9870   14.9700   -2.6770 C   0  0  0  0  0  0  0  0  0  0  0  0
    1.2180   14.2970   -4.0330 C   0  0  2  0  0  0  0  0  0  0  0  0
    0.4780   15.0240   -5.1750 C   0  0  0  0  0  0  0  0  0  0  0  0
    0.9350   14.5980   -6.5730 C   0  0  0  0  0  0  0  0  0  0  0  0
    0.7650   15.7030   -7.5720 C   0  0  2  0  0  0  0  0  0  0  0  0
    0.4210   15.2670   -8.8930 O   0  0  0  0  0  0  0  0  0  0  0  0
    1.6950   15.9150   -8.7510 C   0  0  0  0  0  0  0  0  0  0  0  0
    2.8660   15.0140   -8.9940 C   0  0  0  0  0  0  0  0  0  0  0  0
    1.7550   17.2720   -9.3810 C   0  0  0  0  0  0  0  0  0  0  0  0
    0.7770   12.8390   -3.9720 C   0  0  1  0  0  0  0  0  0  0  0  0
    1.9110   11.8560   -4.3670 C   0  0  0  0  0  0  0  0  0  0  0  0
    1.7300   10.5900   -3.4900 C   0  0  0  0  0  0  0  0  0  0  0  0
    0.3230   10.7450   -2.8660 C   0  0  1  0  0  0  0  0  0  0  0  0
   -0.6630   10.2690   -3.9780 C   0  0  0  0  0  0  0  0  0  0  0  0
    0.0790    9.9940   -1.5170 C   0  0  2  0  0  0  0  0  0  0  0  0
    0.1920    8.4610   -1.5940 C   0  0  0  0  0  0  0  0  0  0  0  0
   -1.0790    7.7420   -1.9010 C   0  0  0  0  0  0  0  0  0  0  0  0
   -2.3150    8.2710   -1.8260 C   0  0  0  0  0  0  0  0  0  0  0  0
   -2.5300    9.6980   -1.3050 C   0  0  1  0  0  0  0  0  0  0  0  0
   -3.6980    9.7050   -0.2830 C   0  0  0  0  0  0  0  0  0  0  0  0
   -4.9750    9.0910   -0.8510 C   0  0  0  0  0  0  0  0  0  0  0  0
   -4.7340    7.6540   -1.3050 C   0  0  2  0  0  0  0  0  0  0  0  0
   -4.4570    6.8480   -0.1560 O   0  0  0  0  0  0  0  0  0  0  0  0
   -3.5730    7.5210   -2.3290 C   0  0  0  0  0  0  0  0  0  0  0  0
   -3.9990    8.1400   -3.6830 C   0  0  0  0  0  0  0  0  0  0  0  0
   -3.3430    6.0090   -2.5960 C   0  0  0  0  0  0  0  0  0  0  0  0
   -1.2360   10.4390   -0.7560 C   0  0  1  0  0  0  0  0  0  0  0  0
   -1.0200   10.0890    0.7480 C   0  0  0  0  0  0  0  0  0  0  0  0
   -1.4670   11.9950   -0.8220 C   0  0  0  0  0  0  0  0  0  0  0  0
   -1.0940   12.6980   -2.1410 C   0  0  0  0  0  0  0  0  0  0  0  0
    0.3100   12.2940   -2.5990 C   0  0  2  0  0  0  0  0  0  0  0  0
    1.3270   12.7810   -1.5100 C   0  0  0  0  0  0  0  0  0  0  0  0
    1.2298   14.2625   -1.8704 H   0  0  0  0  0  0  0  0  0  0  0  0
    1.6321   15.8570   -2.5933 H   0  0  0  0  0  0  0  0  0  0  0  0
   -0.0669   15.2739   -2.5933 H   0  0  0  0  0  0  0  0  0  0  0  0
    2.2951   14.3505   -4.2500 H   0  0  0  0  0  0  0  0  0  0  0  0
   -0.5975   14.8130   -5.0818 H   0  0  0  0  0  0  0  0  0  0  0  0
    0.7053   16.0956   -5.0748 H   0  0  0  0  0  0  0  0  0  0  0  0
    1.9974   14.3161   -6.5304 H   0  0  0  0  0  0  0  0  0  0  0  0
    0.3145   13.7479   -6.8927 H   0  0  0  0  0  0  0  0  0  0  0  0
    0.3971   16.3846   -6.7910 H   0  0  0  0  0  0  0  0  0  0  0  0
    3.2861   14.6907   -8.0302 H   0  0  0  0  0  0  0  0  0  0  0  0
    2.5384   14.1329   -9.5652 H   0  0  0  0  0  0  0  0  0  0  0  0
    3.6338   15.5565   -9.5652 H   0  0  0  0  0  0  0  0  0  0  0  0
    1.7890   18.0402   -8.5945 H   0  0  0  0  0  0  0  0  0  0  0  0
    2.6573   17.3467  -10.0057 H   0  0  0  0  0  0  0  0  0  0  0  0
    0.8628   17.4260  -10.0057 H   0  0  0  0  0  0  0  0  0  0  0  0
   -0.0718   12.8730   -4.6709 H   0  0  0  0  0  0  0  0  0  0  0  0
    1.8311   11.5937   -5.4323 H   0  0  0  0  0  0  0  0  0  0  0  0
    2.9005   12.3093   -4.2075 H   0  0  0  0  0  0  0  0  0  0  0  0
    1.7835    9.6801   -4.1059 H   0  0  0  0  0  0  0  0  0  0  0  0
    2.5165   10.4954   -2.7268 H   0  0  0  0  0  0  0  0  0  0  0  0
   -1.5602    9.8359   -3.5116 H   0  0  0  0  0  0  0  0  0  0  0  0
   -0.9524   11.1266   -4.6031 H   0  0  0  0  0  0  0  0  0  0  0  0
   -0.1715    9.5090   -4.6031 H   0  0  0  0  0  0  0  0  0  0  0  0
    0.9303   10.3261   -0.9047 H   0  0  0  0  0  0  0  0  0  0  0  0
    0.9209    8.2131   -2.3797 H   0  0  0  0  0  0  0  0  0  0  0  0
    0.4949    8.1278   -0.5904 H   0  0  0  0  0  0  0  0  0  0  0  0
   -0.9995    6.6908   -2.2152 H   0  0  0  0  0  0  0  0  0  0  0  0
   -2.7968   10.3048   -2.1829 H   0  0  0  0  0  0  0  0  0  0  0  0
   -3.3942    9.1297    0.6040 H   0  0  0  0  0  0  0  0  0  0  0  0
   -3.9148   10.7534   -0.0302 H   0  0  0  0  0  0  0  0  0  0  0  0
   -5.7539    9.0973   -0.0743 H   0  0  0  0  0  0  0  0  0  0  0  0
   -5.2938    9.6851   -1.7202 H   0  0  0  0  0  0  0  0  0  0  0  0
   -5.6451    7.3135   -1.8189 H   0  0  0  0  0  0  0  0  0  0  0  0
   -3.5180    6.9660    0.0680 H   0  0  0  0  0  0  0  0  0  0  0  0
   -4.6140    9.0336   -3.5004 H   0  0  0  0  0  0  0  0  0  0  0  0
   -3.1030    8.4222   -4.2552 H   0  0  0  0  0  0  0  0  0  0  0  0
   -4.5827    7.4039   -4.2552 H   0  0  0  0  0  0  0  0  0  0  0  0
   -3.2619    5.4756   -1.6374 H   0  0  0  0  0  0  0  0  0  0  0  0
   -4.1900    5.6050   -3.1699 H   0  0  0  0  0  0  0  0  0  0  0  0
   -2.4142    5.8751   -3.1699 H   0  0  0  0  0  0  0  0  0  0  0  0
   -1.4946   10.8580    1.3752 H   0  0  0  0  0  0  0  0  0  0  0  0
   -1.4708    9.1094    0.9649 H   0  0  0  0  0  0  0  0  0  0  0  0
    0.0578   10.0527    0.9649 H   0  0  0  0  0  0  0  0  0  0  0  0
   -2.5352   12.1809   -0.6365 H   0  0  0  0  0  0  0  0  0  0  0  0
   -0.7872   12.4188   -0.0681 H   0  0  0  0  0  0  0  0  0  0  0  0
   -1.8208   12.4161   -2.9171 H   0  0  0  0  0  0  0  0  0  0  0  0
   -1.1098   13.7854   -1.9757 H   0  0  0  0  0  0  0  0  0  0  0  0
    0.9151   12.5837   -0.5093 H   0  0  0  0  0  0  0  0  0  0  0  0
    2.2777   12.2404   -1.6283 H   0  0  0  0  0  0  0  0  0  0  0  0
    1.5019   13.8606   -1.6283 H   0  0  0  0  0  0  0  0  0  0  0  0
  1  2  1  0
  2  3  1  0
  3  4  1  0
  4  5  1  0
  5  6  1  0
  6  7  1  0
  7  8  1  0
  7  9  1  0
  2 10  1  0
 10 11  1  0
 11 12  1  0
 12 13  1  0
 13 14  1  6
 13 15  1  0
 15 16  1  0
 16 17  1  0
 17 18  2  0
 18 19  1  0
 19 20  1  0
 20 21  1  0
 21 22  1  0
 22 23  1  0
 22 24  1  0
 24 25  1  0
 24 26  1  0
 19 27  1  0
 27 28  1  1
 27 29  1  0
 29 30  1  0
 30 31  1  0
 31 32  1  1
  7  5  1  0
 31 10  1  0
 31 13  1  0
 27 15  1  0
 24 18  1  0
  1 33  1  0
  1 34  1  0
  1 35  1  0
  2 36  1  6
  3 37  1  0
  3 38  1  0
  4 39  1  0
  4 40  1  0
  5 41  1  1
  8 42  1  0
  8 43  1  0
  8 44  1  0
  9 45  1  0
  9 46  1  0
  9 47  1  0
 10 48  1  6
 11 49  1  0
 11 50  1  0
 12 51  1  0
 12 52  1  0
 14 53  1  0
 14 54  1  0
 14 55  1  0
 15 56  1  1
 16 57  1  0
 16 58  1  0
 17 59  1  0
 19 60  1  6
 20 61  1  0
 20 62  1  0
 21 63  1  0
 21 64  1  0
 22 65  1  6
 23 66  1  0
 25 67  1  0
 25 68  1  0
 25 69  1  0
 26 70  1  0
 26 71  1  0
 26 72  1  0
 28 73  1  0
 28 74  1  0
 28 75  1  0
 29 76  1  0
 29 77  1  0
 30 78  1  0
 30 79  1  0
 32 80  1  0
 32 81  1  0
 32 82  1  0
M  END
>  <meeko>  (17) 
{"is_sidechain": [false], "intermolecular_energy": 2.731, "internal_energy": -0.839}

$$$$
EPH_relaxed_0001_pdb2pqr_Repair_219_r2_0001_out
     RDKit          3D

 82 86  0  0  0  0  0  0  0  0999 V2000
   -1.8170   14.6650    0.3130 C   0  0  0  0  0  0  0  0  0  0  0  0
   -0.4580   15.3670    0.3670 C   0  0  2  0  0  0  0  0  0  0  0  0
   -0.3730   16.5450   -0.6240 C   0  0  0  0  0  0  0  0  0  0  0  0
    1.0530   17.0460   -0.8640 C   0  0  0  0  0  0  0  0  0  0  0  0
    1.3080   18.3480   -0.1660 C   0  0  2  0  0  0  0  0  0  0  0  0
    2.1510   19.2580   -0.8850 O   0  0  0  0  0  0  0  0  0  0  0  0
    2.6700   18.7630    0.3600 C   0  0  0  0  0  0  0  0  0  0  0  0
    3.8670   17.8770    0.2110 C   0  0  0  0  0  0  0  0  0  0  0  0
    2.7350   19.7970    1.4400 C   0  0  0  0  0  0  0  0  0  0  0  0
    0.6560   14.3660    0.0840 C   0  0  1  0  0  0  0  0  0  0  0  0
    0.8350   13.3310    1.2260 C   0  0  0  0  0  0  0  0  0  0  0  0
    1.2360   11.9920    0.5570 C   0  0  0  0  0  0  0  0  0  0  0  0
    1.5980   12.3750   -0.8970 C   0  0  1  0  0  0  0  0  0  0  0  0
    3.0590   12.9180   -0.8170 C   0  0  0  0  0  0  0  0  0  0  0  0
    1.4610   11.2400   -1.9640 C   0  0  2  0  0  0  0  0  0  0  0  0
    2.3820   10.0270   -1.7490 C   0  0  0  0  0  0  0  0  0  0  0  0
    3.7140   10.1100   -2.4180 C   0  0  0  0  0  0  0  0  0  0  0  0
    4.0480   10.9800   -3.3890 C   0  0  0  0  0  0  0  0  0  0  0  0
    3.0070   11.9400   -3.9800 C   0  0  1  0  0  0  0  0  0  0  0  0
    3.1060   11.9230   -5.5280 C   0  0  0  0  0  0  0  0  0  0  0  0
    4.5180   12.2150   -6.0270 C   0  0  0  0  0  0  0  0  0  0  0  0
    5.5150   11.2050   -5.4640 C   0  0  2  0  0  0  0  0  0  0  0  0
    5.2250    9.9160   -6.0140 O   0  0  0  0  0  0  0  0  0  0  0  0
    5.4980   11.1270   -3.9120 C   0  0  0  0  0  0  0  0  0  0  0  0
    6.1000   12.4250   -3.3190 C   0  0  0  0  0  0  0  0  0  0  0  0
    6.4450    9.9740   -3.4820 C   0  0  0  0  0  0  0  0  0  0  0  0
    1.5160   11.7490   -3.4620 C   0  0  1  0  0  0  0  0  0  0  0  0
    0.7860   10.6750   -4.3250 C   0  0  0  0  0  0  0  0  0  0  0  0
    0.7250   13.0960   -3.6660 C   0  0  0  0  0  0  0  0  0  0  0  0
    0.8030   14.1270   -2.5240 C   0  0  0  0  0  0  0  0  0  0  0  0
    0.5050   13.4710   -1.1720 C   0  0  2  0  0  0  0  0  0  0  0  0
   -0.9660   12.9350   -1.2140 C   0  0  0  0  0  0  0  0  0  0  0  0
   -2.1751   14.4800    1.3365 H   0  0  0  0  0  0  0  0  0  0  0  0
   -2.5385   15.3032   -0.2182 H   0  0  0  0  0  0  0  0  0  0  0  0
   -1.7141   13.7072   -0.2182 H   0  0  0  0  0  0  0  0  0  0  0  0
   -0.3385   15.7790    1.3799 H   0  0  0  0  0  0  0  0  0  0  0  0
   -0.7933   16.2196   -1.5870 H   0  0  0  0  0  0  0  0  0  0  0  0
   -0.9362   17.3793   -0.1804 H   0  0  0  0  0  0  0  0  0  0  0  0
    1.7629   16.2947   -0.4876 H   0  0  0  0  0  0  0  0  0  0  0  0
    1.1833   17.2049   -1.9446 H   0  0  0  0  0  0  0  0  0  0  0  0
    0.3135   18.3181    0.3032 H   0  0  0  0  0  0  0  0  0  0  0  0
    4.2432   17.5985    1.2064 H   0  0  0  0  0  0  0  0  0  0  0  0
    3.5844   16.9687   -0.3415 H   0  0  0  0  0  0  0  0  0  0  0  0
    4.6531   18.4126   -0.3415 H   0  0  0  0  0  0  0  0  0  0  0  0
    2.7040   19.3034    2.4225 H   0  0  0  0  0  0  0  0  0  0  0  0
    3.6708   20.3675    1.3456 H   0  0  0  0  0  0  0  0  0  0  0  0
    1.8780   20.4801    1.3456 H   0  0  0  0  0  0  0  0  0  0  0  0
    1.4986   15.0608   -0.0474 H   0  0  0  0  0  0  0  0  0  0  0  0
    1.6254   13.6613    1.9161 H   0  0  0  0  0  0  0  0  0  0  0  0
   -0.0922   13.2200    1.8073 H   0  0  0  0  0  0  0  0  0  0  0  0
    2.1021   11.5466    1.0683 H   0  0  0  0  0  0  0  0  0  0  0  0
    0.4299   11.2450    0.6031 H   0  0  0  0  0  0  0  0  0  0  0  0
    3.3524   13.0271    0.2375 H   0  0  0  0  0  0  0  0  0  0  0  0
    3.7401   12.2130   -1.3161 H   0  0  0  0  0  0  0  0  0  0  0  0
    3.1143   13.8967   -1.3161 H   0  0  0  0  0  0  0  0  0  0  0  0
    0.4389   10.8733   -1.7880 H   0  0  0  0  0  0  0  0  0  0  0  0
    2.5512    9.9164   -0.6677 H   0  0  0  0  0  0  0  0  0  0  0  0
    1.8660    9.1691   -2.2048 H   0  0  0  0  0  0  0  0  0  0  0  0
    4.4876    9.4003   -2.0897 H   0  0  0  0  0  0  0  0  0  0  0  0
    3.2653   12.9398   -3.6009 H   0  0  0  0  0  0  0  0  0  0  0  0
    2.8025   10.9296   -5.8899 H   0  0  0  0  0  0  0  0  0  0  0  0
    2.4454   12.7135   -5.9136 H   0  0  0  0  0  0  0  0  0  0  0  0
    4.5304   12.1592   -7.1255 H   0  0  0  0  0  0  0  0  0  0  0  0
    4.8087   13.2209   -5.6899 H   0  0  0  0  0  0  0  0  0  0  0  0
    6.5226   11.5414   -5.7496 H   0  0  0  0  0  0  0  0  0  0  0  0
    4.4130    9.5910   -5.5900 H   0  0  0  0  0  0  0  0  0  0  0  0
    6.0755   12.3721   -2.2205 H   0  0  0  0  0  0  0  0  0  0  0  0
    7.1408   12.5345   -3.6576 H   0  0  0  0  0  0  0  0  0  0  0  0
    5.5113   13.2903   -3.6576 H   0  0  0  0  0  0  0  0  0  0  0  0
    6.4863    9.9237   -2.3839 H   0  0  0  0  0  0  0  0  0  0  0  0
    6.0657    9.0207   -3.8787 H   0  0  0  0  0  0  0  0  0  0  0  0
    7.4538   10.1608   -3.8787 H   0  0  0  0  0  0  0  0  0  0  0  0
    0.2917    9.9477   -3.6642 H   0  0  0  0  0  0  0  0  0  0  0  0
    0.0329   11.1647   -4.9598 H   0  0  0  0  0  0  0  0  0  0  0  0
    1.5185   10.1549   -4.9598 H   0  0  0  0  0  0  0  0  0  0  0  0
    1.1150   13.5765   -4.5754 H   0  0  0  0  0  0  0  0  0  0  0  0
   -0.3340   12.8030   -3.7175 H   0  0  0  0  0  0  0  0  0  0  0  0
    1.8137   14.5603   -2.4988 H   0  0  0  0  0  0  0  0  0  0  0  0
    0.0528   14.9104   -2.7068 H   0  0  0  0  0  0  0  0  0  0  0  0
   -1.3365   12.8000   -0.1871 H   0  0  0  0  0  0  0  0  0  0  0  0
   -1.6048   13.6581   -1.7422 H   0  0  0  0  0  0  0  0  0  0  0  0
   -0.9898   11.9704   -1.7422 H   0  0  0  0  0  0  0  0  0  0  0  0
  1  2  1  0
  2  3  1  0
  3  4  1  0
  4  5  1  0
  5  6  1  0
  6  7  1  0
  7  8  1  0
  7  9  1  0
  2 10  1  0
 10 11  1  0
 11 12  1  0
 12 13  1  0
 13 14  1  1
 13 15  1  0
 15 16  1  0
 16 17  1  0
 17 18  2  0
 18 19  1  0
 19 20  1  0
 20 21  1  0
 21 22  1  0
 22 23  1  0
 22 24  1  0
 24 25  1  0
 24 26  1  0
 19 27  1  0
 27 28  1  6
 27 29  1  0
 29 30  1  0
 30 31  1  0
 31 32  1  6
  7  5  1  0
 31 10  1  0
 31 13  1  0
 27 15  1  0
 24 18  1  0
  1 33  1  0
  1 34  1  0
  1 35  1  0
  2 36  1  1
  3 37  1  0
  3 38  1  0
  4 39  1  0
  4 40  1  0
  5 41  1  1
  8 42  1  0
  8 43  1  0
  8 44  1  0
  9 45  1  0
  9 46  1  0
  9 47  1  0
 10 48  1  6
 11 49  1  0
 11 50  1  0
 12 51  1  0
 12 52  1  0
 14 53  1  0
 14 54  1  0
 14 55  1  0
 15 56  1  1
 16 57  1  0
 16 58  1  0
 17 59  1  0
 19 60  1  1
 20 61  1  0
 20 62  1  0
 21 63  1  0
 21 64  1  0
 22 65  1  6
 23 66  1  0
 25 67  1  0
 25 68  1  0
 25 69  1  0
 26 70  1  0
 26 71  1  0
 26 72  1  0
 28 73  1  0
 28 74  1  0
 28 75  1  0
 29 76  1  0
 29 77  1  0
 30 78  1  0
 30 79  1  0
 32 80  1  0
 32 81  1  0
 32 82  1  0
M  END
>  <meeko>  (18) 
{"is_sidechain": [false], "intermolecular_energy": 2.731, "internal_energy": -0.839}

$$$$
