EPH_relaxed_0001_pdb2pqr_Repair_386_r2_0001_out
     RDKit          3D

 82 86  0  0  0  0  0  0  0  0999 V2000
   -1.6530    8.5780   -1.8670 C   0  0  0  0  0  0  0  0  0  0  0  0
   -2.0350    9.1010   -0.4790 C   0  0  2  0  0  0  0  0  0  0  0  0
   -3.5310    9.4640   -0.3860 C   0  0  0  0  0  0  0  0  0  0  0  0
   -4.4530    8.2470   -0.2770 C   0  0  0  0  0  0  0  0  0  0  0  0
   -5.1240    7.9410   -1.5820 C   0  0  2  0  0  0  0  0  0  0  0  0
   -6.3350    8.6720   -1.8180 O   0  0  0  0  0  0  0  0  0  0  0  0
   -6.4700    7.2470   -1.6880 C   0  0  0  0  0  0  0  0  0  0  0  0
   -7.2240    6.8160   -0.4700 C   0  0  0  0  0  0  0  0  0  0  0  0
   -6.8190    6.5560   -2.9690 C   0  0  0  0  0  0  0  0  0  0  0  0
   -1.1820   10.3150   -0.1290 C   0  0  1  0  0  0  0  0  0  0  0  0
   -0.1470   10.0170    0.9870 C   0  0  0  0  0  0  0  0  0  0  0  0
    1.1180   10.8520    0.6600 C   0  0  0  0  0  0  0  0  0  0  0  0
    0.6560   11.8460   -0.4320 C   0  0  1  0  0  0  0  0  0  0  0  0
   -0.0550   12.9960    0.3480 C   0  0  0  0  0  0  0  0  0  0  0  0
    1.7710   12.3960   -1.3810 C   0  0  2  0  0  0  0  0  0  0  0  0
    2.8700   13.2190   -0.6880 C   0  0  0  0  0  0  0  0  0  0  0  0
    2.6110   14.6870   -0.6030 C   0  0  0  0  0  0  0  0  0  0  0  0
    1.6820   15.3590   -1.3090 C   0  0  0  0  0  0  0  0  0  0  0  0
    0.8390   14.6500   -2.3770 C   0  0  1  0  0  0  0  0  0  0  0  0
    0.8040   15.5130   -3.6650 C   0  0  0  0  0  0  0  0  0  0  0  0
    0.3320   16.9400   -3.4010 C   0  0  0  0  0  0  0  0  0  0  0  0
    1.2300   17.6300   -2.3780 C   0  0  2  0  0  0  0  0  0  0  0  0
    2.5290   17.8080   -2.9500 O   0  0  0  0  0  0  0  0  0  0  0  0
    1.3500   16.8470   -1.0410 C   0  0  0  0  0  0  0  0  0  0  0  0
    0.0050   16.9150   -0.2760 C   0  0  0  0  0  0  0  0  0  0  0  0
    2.3920   17.5780   -0.1520 C   0  0  0  0  0  0  0  0  0  0  0  0
    1.2200   13.1350   -2.6670 C   0  0  1  0  0  0  0  0  0  0  0  0
    2.3510   13.0660   -3.7390 C   0  0  0  0  0  0  0  0  0  0  0  0
   -0.0270   12.4020   -3.2900 C   0  0  0  0  0  0  0  0  0  0  0  0
   -1.0300   11.7760   -2.3020 C   0  0  0  0  0  0  0  0  0  0  0  0
   -0.3080   10.9190   -1.2570 C   0  0  2  0  0  0  0  0  0  0  0  0
    0.3990    9.7410   -2.0100 C   0  0  0  0  0  0  0  0  0  0  0  0
   -1.0072    7.6939   -1.7607 H   0  0  0  0  0  0  0  0  0  0  0  0
   -2.5640    8.3025   -2.4185 H   0  0  0  0  0  0  0  0  0  0  0  0
   -1.1134    9.3620   -2.4185 H   0  0  0  0  0  0  0  0  0  0  0  0
   -1.8464    8.2926    0.2428 H   0  0  0  0  0  0  0  0  0  0  0  0
   -3.6810   10.0942    0.5030 H   0  0  0  0  0  0  0  0  0  0  0  0
   -3.7944    9.9848   -1.3184 H   0  0  0  0  0  0  0  0  0  0  0  0
   -3.8573    7.3749    0.0306 H   0  0  0  0  0  0  0  0  0  0  0  0
   -5.2331    8.4732    0.4649 H   0  0  0  0  0  0  0  0  0  0  0  0
   -4.1539    7.7470   -2.0629 H   0  0  0  0  0  0  0  0  0  0  0  0
   -6.6757    7.1294    0.4306 H   0  0  0  0  0  0  0  0  0  0  0  0
   -8.2211    7.2806   -0.4725 H   0  0  0  0  0  0  0  0  0  0  0  0
   -7.3296    5.7211   -0.4725 H   0  0  0  0  0  0  0  0  0  0  0  0
   -7.3047    5.5944   -2.7464 H   0  0  0  0  0  0  0  0  0  0  0  0
   -7.5061    7.1878   -3.5510 H   0  0  0  0  0  0  0  0  0  0  0  0
   -5.9027    6.3780   -3.5510 H   0  0  0  0  0  0  0  0  0  0  0  0
   -1.9759   11.0225    0.1523 H   0  0  0  0  0  0  0  0  0  0  0  0
   -0.5516   10.3106    1.9668 H   0  0  0  0  0  0  0  0  0  0  0  0
    0.0891    8.9435    1.0297 H   0  0  0  0  0  0  0  0  0  0  0  0
    1.4694   11.3908    1.5523 H   0  0  0  0  0  0  0  0  0  0  0  0
    1.9577   10.2249    0.3259 H   0  0  0  0  0  0  0  0  0  0  0  0
    0.0505   12.8253    1.4295 H   0  0  0  0  0  0  0  0  0  0  0  0
    0.4056   13.9589    0.0821 H   0  0  0  0  0  0  0  0  0  0  0  0
   -1.1222   13.0142    0.0821 H   0  0  0  0  0  0  0  0  0  0  0  0
    2.2619   11.4746   -1.7274 H   0  0  0  0  0  0  0  0  0  0  0  0
    2.9873   12.8349    0.3361 H   0  0  0  0  0  0  0  0  0  0  0  0
    3.7715   13.1049   -1.3079 H   0  0  0  0  0  0  0  0  0  0  0  0
    3.2312   15.2684    0.0950 H   0  0  0  0  0  0  0  0  0  0  0  0
   -0.1744   14.5640   -1.9580 H   0  0  0  0  0  0  0  0  0  0  0  0
    1.8170   15.5501   -4.0922 H   0  0  0  0  0  0  0  0  0  0  0  0
    0.0885   15.0478   -4.3591 H   0  0  0  0  0  0  0  0  0  0  0  0
    0.3568   17.5076   -4.3429 H   0  0  0  0  0  0  0  0  0  0  0  0
   -0.6922   16.9032   -3.0015 H   0  0  0  0  0  0  0  0  0  0  0  0
    0.7680   18.5979   -2.1337 H   0  0  0  0  0  0  0  0  0  0  0  0
    2.4160   17.9210   -3.9090 H   0  0  0  0  0  0  0  0  0  0  0  0
    0.1982   16.9052    0.8069 H   0  0  0  0  0  0  0  0  0  0  0  0
   -0.5239   17.8410   -0.5458 H   0  0  0  0  0  0  0  0  0  0  0  0
   -0.6146   16.0470   -0.5458 H   0  0  0  0  0  0  0  0  0  0  0  0
    2.1519   17.4096    0.9082 H   0  0  0  0  0  0  0  0  0  0  0  0
    3.3970   17.1859   -0.3672 H   0  0  0  0  0  0  0  0  0  0  0  0
    2.3654   18.6564   -0.3672 H   0  0  0  0  0  0  0  0  0  0  0  0
    3.3283   13.0064   -3.2376 H   0  0  0  0  0  0  0  0  0  0  0  0
    2.2065   12.1750   -4.3677 H   0  0  0  0  0  0  0  0  0  0  0  0
    2.3158   13.9680   -4.3677 H   0  0  0  0  0  0  0  0  0  0  0  0
   -0.5743   13.1361   -3.8995 H   0  0  0  0  0  0  0  0  0  0  0  0
    0.3894   11.5540   -3.8535 H   0  0  0  0  0  0  0  0  0  0  0  0
   -1.5804   12.5794   -1.7905 H   0  0  0  0  0  0  0  0  0  0  0  0
   -1.7224   11.1331   -2.8652 H   0  0  0  0  0  0  0  0  0  0  0  0
    0.8210    9.0379   -1.2768 H   0  0  0  0  0  0  0  0  0  0  0  0
   -0.3339    9.2168   -2.6410 H   0  0  0  0  0  0  0  0  0  0  0  0
    1.2063   10.1412   -2.6410 H   0  0  0  0  0  0  0  0  0  0  0  0
  1  2  1  0
  2  3  1  0
  3  4  1  0
  4  5  1  0
  5  6  1  0
  6  7  1  0
  7  8  1  0
  7  9  1  0
  2 10  1  0
 10 11  1  0
 11 12  1  0
 12 13  1  0
 13 14  1  1
 13 15  1  0
 15 16  1  0
 16 17  1  0
 17 18  2  0
 18 19  1  0
 19 20  1  0
 20 21  1  0
 21 22  1  0
 22 23  1  0
 22 24  1  0
 24 25  1  0
 24 26  1  0
 19 27  1  0
 27 28  1  6
 27 29  1  0
 29 30  1  0
 30 31  1  0
 31 32  1  6
  7  5  1  0
 31 10  1  0
 31 13  1  0
 27 15  1  0
 24 18  1  0
  1 33  1  0
  1 34  1  0
  1 35  1  0
  2 36  1  1
  3 37  1  0
  3 38  1  0
  4 39  1  0
  4 40  1  0
  5 41  1  6
  8 42  1  0
  8 43  1  0
  8 44  1  0
  9 45  1  0
  9 46  1  0
  9 47  1  0
 10 48  1  1
 11 49  1  0
 11 50  1  0
 12 51  1  0
 12 52  1  0
 14 53  1  0
 14 54  1  0
 14 55  1  0
 15 56  1  6
 16 57  1  0
 16 58  1  0
 17 59  1  0
 19 60  1  1
 20 61  1  0
 20 62  1  0
 21 63  1  0
 21 64  1  0
 22 65  1  1
 23 66  1  0
 25 67  1  0
 25 68  1  0
 25 69  1  0
 26 70  1  0
 26 71  1  0
 26 72  1  0
 28 73  1  0
 28 74  1  0
 28 75  1  0
 29 76  1  0
 29 77  1  0
 30 78  1  0
 30 79  1  0
 32 80  1  0
 32 81  1  0
 32 82  1  0
M  END
>  <meeko>  (1) 
{"is_sidechain": [false], "intermolecular_energy": 2.731, "internal_energy": -0.839}

$$$$
EPH_relaxed_0001_pdb2pqr_Repair_386_r2_0001_out
     RDKit          3D

 82 86  0  0  0  0  0  0  0  0999 V2000
    1.9480   19.6630   -0.5890 C   0  0  0  0  0  0  0  0  0  0  0  0
    2.3650   18.4350    0.2240 C   0  0  2  0  0  0  0  0  0  0  0  0
    3.8150   18.0050   -0.0750 C   0  0  0  0  0  0  0  0  0  0  0  0
    4.7860   18.2700    1.0790 C   0  0  0  0  0  0  0  0  0  0  0  0
    4.1290   19.0250    2.1940 C   0  0  2  0  0  0  0  0  0  0  0  0
    4.8470   20.1840    2.6380 O   0  0  0  0  0  0  0  0  0  0  0  0
    4.7070   19.1210    3.5940 C   0  0  0  0  0  0  0  0  0  0  0  0
    5.9960   18.4520    3.9540 C   0  0  0  0  0  0  0  0  0  0  0  0
    3.7860   19.4480    4.7280 C   0  0  0  0  0  0  0  0  0  0  0  0
    1.4110   17.2790   -0.0540 C   0  0  1  0  0  0  0  0  0  0  0  0
    0.1350   17.7280   -0.8140 C   0  0  0  0  0  0  0  0  0  0  0  0
   -0.2520   16.5640   -1.7630 C   0  0  0  0  0  0  0  0  0  0  0  0
    0.6040   15.3690   -1.2830 C   0  0  1  0  0  0  0  0  0  0  0  0
   -0.1670   14.7910   -0.0550 C   0  0  0  0  0  0  0  0  0  0  0  0
    0.9050   14.2640   -2.3470 C   0  0  2  0  0  0  0  0  0  0  0  0
   -0.3320   13.5310   -2.8950 C   0  0  0  0  0  0  0  0  0  0  0  0
   -0.7300   12.3030   -2.1440 C   0  0  0  0  0  0  0  0  0  0  0  0
    0.0360   11.6490   -1.2520 C   0  0  0  0  0  0  0  0  0  0  0  0
    1.4850   12.0800   -0.9930 C   0  0  1  0  0  0  0  0  0  0  0  0
    2.4050   10.8300   -0.9940 C   0  0  0  0  0  0  0  0  0  0  0  0
    1.9330    9.7560   -0.0190 C   0  0  0  0  0  0  0  0  0  0  0  0
    0.5090    9.3120   -0.3450 C   0  0  2  0  0  0  0  0  0  0  0  0
    0.5130    8.6400   -1.6080 O   0  0  0  0  0  0  0  0  0  0  0  0
   -0.5060   10.4880   -0.3820 C   0  0  0  0  0  0  0  0  0  0  0  0
   -0.7370   11.0230    1.0530 C   0  0  0  0  0  0  0  0  0  0  0  0
   -1.8720    9.9250   -0.8600 C   0  0  0  0  0  0  0  0  0  0  0  0
    2.0390   13.2450   -1.9210 C   0  0  1  0  0  0  0  0  0  0  0  0
    2.6180   12.6460   -3.2390 C   0  0  0  0  0  0  0  0  0  0  0  0
    3.2390   13.9570   -1.1920 C   0  0  0  0  0  0  0  0  0  0  0  0
    2.8860   15.1190   -0.2450 C   0  0  0  0  0  0  0  0  0  0  0  0
    1.9410   16.1140   -0.9260 C   0  0  2  0  0  0  0  0  0  0  0  0
    2.6970   16.7280   -2.1530 C   0  0  0  0  0  0  0  0  0  0  0  0
    1.6710   20.4788    0.0949 H   0  0  0  0  0  0  0  0  0  0  0  0
    2.7871   19.9852   -1.2231 H   0  0  0  0  0  0  0  0  0  0  0  0
    1.0862   19.4076   -1.2231 H   0  0  0  0  0  0  0  0  0  0  0  0
    2.3155   18.7105    1.2878 H   0  0  0  0  0  0  0  0  0  0  0  0
    3.8197   16.9267   -0.2921 H   0  0  0  0  0  0  0  0  0  0  0  0
    4.1591   18.6066   -0.9292 H   0  0  0  0  0  0  0  0  0  0  0  0
    5.1502   17.3071    1.4666 H   0  0  0  0  0  0  0  0  0  0  0  0
    5.6168   18.8800    0.6948 H   0  0  0  0  0  0  0  0  0  0  0  0
    3.1307   18.7470    1.8250 H   0  0  0  0  0  0  0  0  0  0  0  0
    6.0904   18.4030    5.0488 H   0  0  0  0  0  0  0  0  0  0  0  0
    6.0089   17.4334    3.5389 H   0  0  0  0  0  0  0  0  0  0  0  0
    6.8364   19.0278    3.5389 H   0  0  0  0  0  0  0  0  0  0  0  0
    4.3007   19.2652    5.6828 H   0  0  0  0  0  0  0  0  0  0  0  0
    3.4908   20.5059    4.6672 H   0  0  0  0  0  0  0  0  0  0  0  0
    2.8898   18.8131    4.6672 H   0  0  0  0  0  0  0  0  0  0  0  0
    1.2389   16.9298    0.9748 H   0  0  0  0  0  0  0  0  0  0  0  0
   -0.6807   17.9240   -0.1025 H   0  0  0  0  0  0  0  0  0  0  0  0
    0.3164   18.6546   -1.3783 H   0  0  0  0  0  0  0  0  0  0  0  0
   -1.3241   16.3331   -1.6773 H   0  0  0  0  0  0  0  0  0  0  0  0
   -0.0708   16.8093   -2.8199 H   0  0  0  0  0  0  0  0  0  0  0  0
    0.3047   15.1446    0.8737 H   0  0  0  0  0  0  0  0  0  0  0  0
   -1.2133   15.1292   -0.0866 H   0  0  0  0  0  0  0  0  0  0  0  0
   -0.1358   13.6919   -0.0866 H   0  0  0  0  0  0  0  0  0  0  0  0
    1.3022   14.8500   -3.1889 H   0  0  0  0  0  0  0  0  0  0  0  0
   -1.1795   14.2319   -2.8741 H   0  0  0  0  0  0  0  0  0  0  0  0
   -0.0633   13.1951   -3.9074 H   0  0  0  0  0  0  0  0  0  0  0  0
   -1.7348   11.8989   -2.3365 H   0  0  0  0  0  0  0  0  0  0  0  0
    1.4894   12.5470    0.0030 H   0  0  0  0  0  0  0  0  0  0  0  0
    2.4199   10.4039   -2.0080 H   0  0  0  0  0  0  0  0  0  0  0  0
    3.4073   11.1527   -0.6759 H   0  0  0  0  0  0  0  0  0  0  0  0
    2.6052    8.8879   -0.0864 H   0  0  0  0  0  0  0  0  0  0  0  0
    1.9465   10.1744    0.9982 H   0  0  0  0  0  0  0  0  0  0  0  0
    0.1806    8.6397    0.4613 H   0  0  0  0  0  0  0  0  0  0  0  0
   -0.0820    7.8750   -1.5370 H   0  0  0  0  0  0  0  0  0  0  0  0
   -0.4108   10.2675    1.7829 H   0  0  0  0  0  0  0  0  0  0  0  0
   -0.1576   11.9468    1.1976 H   0  0  0  0  0  0  0  0  0  0  0  0
   -1.8067   11.2347    1.1976 H   0  0  0  0  0  0  0  0  0  0  0  0
   -2.4897    9.6704    0.0139 H   0  0  0  0  0  0  0  0  0  0  0  0
   -2.3892   10.6833   -1.4662 H   0  0  0  0  0  0  0  0  0  0  0  0
   -1.7047    9.0225   -1.4662 H   0  0  0  0  0  0  0  0  0  0  0  0
    3.3634   11.8748   -2.9948 H   0  0  0  0  0  0  0  0  0  0  0  0
    1.8037   12.1961   -3.8260 H   0  0  0  0  0  0  0  0  0  0  0  0
    3.0953   13.4445   -3.8260 H   0  0  0  0  0  0  0  0  0  0  0  0
    3.7683   13.1952   -0.6009 H   0  0  0  0  0  0  0  0  0  0  0  0
    3.8347   14.4127   -1.9967 H   0  0  0  0  0  0  0  0  0  0  0  0
    2.3964   14.7150    0.6534 H   0  0  0  0  0  0  0  0  0  0  0  0
    3.8134   15.6451    0.0254 H   0  0  0  0  0  0  0  0  0  0  0  0
    3.5045   17.3838   -1.7954 H   0  0  0  0  0  0  0  0  0  0  0  0
    3.1249   15.9185   -2.7626 H   0  0  0  0  0  0  0  0  0  0  0  0
    1.9925   17.3128   -2.7626 H   0  0  0  0  0  0  0  0  0  0  0  0
  1  2  1  0
  2  3  1  0
  3  4  1  0
  4  5  1  0
  5  6  1  0
  6  7  1  0
  7  8  1  0
  7  9  1  0
  2 10  1  0
 10 11  1  0
 11 12  1  0
 12 13  1  0
 13 14  1  1
 13 15  1  0
 15 16  1  0
 16 17  1  0
 17 18  2  0
 18 19  1  0
 19 20  1  0
 20 21  1  0
 21 22  1  0
 22 23  1  0
 22 24  1  0
 24 25  1  0
 24 26  1  0
 19 27  1  0
 27 28  1  6
 27 29  1  0
 29 30  1  0
 30 31  1  0
 31 32  1  6
  7  5  1  0
 31 10  1  0
 31 13  1  0
 27 15  1  0
 24 18  1  0
  1 33  1  0
  1 34  1  0
  1 35  1  0
  2 36  1  1
  3 37  1  0
  3 38  1  0
  4 39  1  0
  4 40  1  0
  5 41  1  1
  8 42  1  0
  8 43  1  0
  8 44  1  0
  9 45  1  0
  9 46  1  0
  9 47  1  0
 10 48  1  1
 11 49  1  0
 11 50  1  0
 12 51  1  0
 12 52  1  0
 14 53  1  0
 14 54  1  0
 14 55  1  0
 15 56  1  6
 16 57  1  0
 16 58  1  0
 17 59  1  0
 19 60  1  1
 20 61  1  0
 20 62  1  0
 21 63  1  0
 21 64  1  0
 22 65  1  1
 23 66  1  0
 25 67  1  0
 25 68  1  0
 25 69  1  0
 26 70  1  0
 26 71  1  0
 26 72  1  0
 28 73  1  0
 28 74  1  0
 28 75  1  0
 29 76  1  0
 29 77  1  0
 30 78  1  0
 30 79  1  0
 32 80  1  0
 32 81  1  0
 32 82  1  0
M  END
>  <meeko>  (2) 
{"is_sidechain": [false], "intermolecular_energy": 2.731, "internal_energy": -0.839}

$$$$
EPH_relaxed_0001_pdb2pqr_Repair_386_r2_0001_out
     RDKit          3D

 82 86  0  0  0  0  0  0  0  0999 V2000
    0.4330   18.3920    0.0340 C   0  0  0  0  0  0  0  0  0  0  0  0
    1.5210   17.3430   -0.2130 C   0  0  2  0  0  0  0  0  0  0  0  0
    2.7190   17.9200   -0.9930 C   0  0  0  0  0  0  0  0  0  0  0  0
    3.9420   18.2090   -0.1180 C   0  0  0  0  0  0  0  0  0  0  0  0
    3.5460   18.6790    1.2490 C   0  0  2  0  0  0  0  0  0  0  0  0
    3.8150   20.0630    1.5080 O   0  0  0  0  0  0  0  0  0  0  0  0
    4.5450   19.1160    2.3050 C   0  0  0  0  0  0  0  0  0  0  0  0
    6.0180   19.1030    2.0390 C   0  0  0  0  0  0  0  0  0  0  0  0
    4.1260   19.0880    3.7420 C   0  0  0  0  0  0  0  0  0  0  0  0
    0.9350   16.1530   -0.9650 C   0  0  1  0  0  0  0  0  0  0  0  0
    0.8010   16.4160   -2.4880 C   0  0  0  0  0  0  0  0  0  0  0  0
    1.0780   15.0670   -3.2010 C   0  0  0  0  0  0  0  0  0  0  0  0
    1.0320   14.0130   -2.0700 C   0  0  1  0  0  0  0  0  0  0  0  0
   -0.4870   13.7290   -1.8480 C   0  0  0  0  0  0  0  0  0  0  0  0
    1.8340   12.6950   -2.3220 C   0  0  2  0  0  0  0  0  0  0  0  0
    1.3530   11.8560   -3.5180 C   0  0  0  0  0  0  0  0  0  0  0  0
    0.3150   10.8310   -3.2020 C   0  0  0  0  0  0  0  0  0  0  0  0
   -0.0060   10.3970   -1.9690 C   0  0  0  0  0  0  0  0  0  0  0  0
    0.7740   10.8760   -0.7380 C   0  0  1  0  0  0  0  0  0  0  0  0
    1.1240    9.6600    0.1590 C   0  0  0  0  0  0  0  0  0  0  0  0
   -0.1040    8.8350    0.5320 C   0  0  0  0  0  0  0  0  0  0  0  0
   -0.8190    8.3270   -0.7180 C   0  0  2  0  0  0  0  0  0  0  0  0
    0.0280    7.3860   -1.3840 O   0  0  0  0  0  0  0  0  0  0  0  0
   -1.2130    9.4640   -1.7030 C   0  0  0  0  0  0  0  0  0  0  0  0
   -2.3560   10.3100   -1.0900 C   0  0  0  0  0  0  0  0  0  0  0  0
   -1.7970    8.8060   -2.9820 C   0  0  0  0  0  0  0  0  0  0  0  0
    2.0330   11.8010   -1.0310 C   0  0  1  0  0  0  0  0  0  0  0  0
    3.2920   10.9180   -1.2910 C   0  0  0  0  0  0  0  0  0  0  0  0
    2.3500   12.6600    0.2490 C   0  0  0  0  0  0  0  0  0  0  0  0
    1.6140   14.0080    0.3810 C   0  0  0  0  0  0  0  0  0  0  0  0
    1.7230   14.8210   -0.9120 C   0  0  2  0  0  0  0  0  0  0  0  0
    3.2380   15.1410   -1.1500 C   0  0  0  0  0  0  0  0  0  0  0  0
    0.2929   18.5271    1.1167 H   0  0  0  0  0  0  0  0  0  0  0  0
    0.7357   19.3478   -0.4186 H   0  0  0  0  0  0  0  0  0  0  0  0
   -0.5111   18.0547   -0.4186 H   0  0  0  0  0  0  0  0  0  0  0  0
    1.8934   17.0161    0.7691 H   0  0  0  0  0  0  0  0  0  0  0  0
    3.0100   17.1958   -1.7681 H   0  0  0  0  0  0  0  0  0  0  0  0
    2.3932   18.8811   -1.4175 H   0  0  0  0  0  0  0  0  0  0  0  0
    4.5362   17.2885   -0.0204 H   0  0  0  0  0  0  0  0  0  0  0  0
    4.5274   19.0065   -0.5989 H   0  0  0  0  0  0  0  0  0  0  0  0
    2.7067   17.9684    1.2760 H   0  0  0  0  0  0  0  0  0  0  0  0
    6.5631   19.0982    2.9944 H   0  0  0  0  0  0  0  0  0  0  0  0
    6.2788   18.2025    1.4635 H   0  0  0  0  0  0  0  0  0  0  0  0
    6.2946   19.9987    1.4635 H   0  0  0  0  0  0  0  0  0  0  0  0
    5.0166   19.1475    4.3848 H   0  0  0  0  0  0  0  0  0  0  0  0
    3.4669   19.9441    3.9485 H   0  0  0  0  0  0  0  0  0  0  0  0
    3.5866   18.1518    3.9485 H   0  0  0  0  0  0  0  0  0  0  0  0
   -0.0190   16.0468   -0.4278 H   0  0  0  0  0  0  0  0  0  0  0  0
   -0.2143   16.7676   -2.7238 H   0  0  0  0  0  0  0  0  0  0  0  0
    1.5088   17.1903   -2.8189 H   0  0  0  0  0  0  0  0  0  0  0  0
    0.3052   14.8607   -3.9561 H   0  0  0  0  0  0  0  0  0  0  0  0
    2.0402   15.0661   -3.7340 H   0  0  0  0  0  0  0  0  0  0  0  0
   -0.6988   13.6894   -0.7693 H   0  0  0  0  0  0  0  0  0  0  0  0
   -1.0813   14.5316   -2.3091 H   0  0  0  0  0  0  0  0  0  0  0  0
   -0.7512   12.7659   -2.3091 H   0  0  0  0  0  0  0  0  0  0  0  0
    2.8272   13.0741   -2.6046 H   0  0  0  0  0  0  0  0  0  0  0  0
    0.9349   12.5428   -4.2686 H   0  0  0  0  0  0  0  0  0  0  0  0
    2.2328   11.2987   -3.8720 H   0  0  0  0  0  0  0  0  0  0  0  0
   -0.2342   10.3932   -4.0486 H   0  0  0  0  0  0  0  0  0  0  0  0
    0.1000   11.5567   -0.1973 H   0  0  0  0  0  0  0  0  0  0  0  0
    1.8312    9.0145   -0.3824 H   0  0  0  0  0  0  0  0  0  0  0  0
    1.5613   10.0476    1.0909 H   0  0  0  0  0  0  0  0  0  0  0  0
    0.2112    7.9751    1.1412 H   0  0  0  0  0  0  0  0  0  0  0  0
   -0.7976    9.4735    1.0988 H   0  0  0  0  0  0  0  0  0  0  0  0
   -1.7575    7.8548   -0.3919 H   0  0  0  0  0  0  0  0  0  0  0  0
    0.4430    7.8430   -2.1350 H   0  0  0  0  0  0  0  0  0  0  0  0
   -2.2967   10.2661    0.0075 H   0  0  0  0  0  0  0  0  0  0  0  0
   -2.2573   11.3544   -1.4210 H   0  0  0  0  0  0  0  0  0  0  0  0
   -3.3260    9.9105   -1.4210 H   0  0  0  0  0  0  0  0  0  0  0  0
   -2.5021    8.0115   -2.6963 H   0  0  0  0  0  0  0  0  0  0  0  0
   -2.3231    9.5663   -3.5780 H   0  0  0  0  0  0  0  0  0  0  0  0
   -0.9796    8.3739   -3.5780 H   0  0  0  0  0  0  0  0  0  0  0  0
    3.7295   10.6111   -0.3295 H   0  0  0  0  0  0  0  0  0  0  0  0
    3.0015   10.0247   -1.8634 H   0  0  0  0  0  0  0  0  0  0  0  0
    4.0329   11.4954   -1.8634 H   0  0  0  0  0  0  0  0  0  0  0  0
    2.0928   12.0528    1.1294 H   0  0  0  0  0  0  0  0  0  0  0  0
    3.4153   12.9207    0.1642 H   0  0  0  0  0  0  0  0  0  0  0  0
    0.5525   13.8186    0.5985 H   0  0  0  0  0  0  0  0  0  0  0  0
    2.0777   14.5824    1.1965 H   0  0  0  0  0  0  0  0  0  0  0  0
    3.7467   15.2485   -0.1806 H   0  0  0  0  0  0  0  0  0  0  0  0
    3.7011   14.3209   -1.7182 H   0  0  0  0  0  0  0  0  0  0  0  0
    3.3299   16.0784   -1.7182 H   0  0  0  0  0  0  0  0  0  0  0  0
  1  2  1  0
  2  3  1  0
  3  4  1  0
  4  5  1  0
  5  6  1  0
  6  7  1  0
  7  8  1  0
  7  9  1  0
  2 10  1  0
 10 11  1  0
 11 12  1  0
 12 13  1  0
 13 14  1  1
 13 15  1  0
 15 16  1  0
 16 17  1  0
 17 18  2  0
 18 19  1  0
 19 20  1  0
 20 21  1  0
 21 22  1  0
 22 23  1  0
 22 24  1  0
 24 25  1  0
 24 26  1  0
 19 27  1  0
 27 28  1  6
 27 29  1  0
 29 30  1  0
 30 31  1  0
 31 32  1  6
  7  5  1  0
 31 10  1  0
 31 13  1  0
 27 15  1  0
 24 18  1  0
  1 33  1  0
  1 34  1  0
  1 35  1  0
  2 36  1  1
  3 37  1  0
  3 38  1  0
  4 39  1  0
  4 40  1  0
  5 41  1  1
  8 42  1  0
  8 43  1  0
  8 44  1  0
  9 45  1  0
  9 46  1  0
  9 47  1  0
 10 48  1  1
 11 49  1  0
 11 50  1  0
 12 51  1  0
 12 52  1  0
 14 53  1  0
 14 54  1  0
 14 55  1  0
 15 56  1  6
 16 57  1  0
 16 58  1  0
 17 59  1  0
 19 60  1  1
 20 61  1  0
 20 62  1  0
 21 63  1  0
 21 64  1  0
 22 65  1  1
 23 66  1  0
 25 67  1  0
 25 68  1  0
 25 69  1  0
 26 70  1  0
 26 71  1  0
 26 72  1  0
 28 73  1  0
 28 74  1  0
 28 75  1  0
 29 76  1  0
 29 77  1  0
 30 78  1  0
 30 79  1  0
 32 80  1  0
 32 81  1  0
 32 82  1  0
M  END
>  <meeko>  (3) 
{"is_sidechain": [false], "intermolecular_energy": 2.731, "internal_energy": -0.839}

$$$$
EPH_relaxed_0001_pdb2pqr_Repair_386_r2_0001_out
     RDKit          3D

 82 86  0  0  0  0  0  0  0  0999 V2000
    2.0240   18.2290   -2.7890 C   0  0  0  0  0  0  0  0  0  0  0  0
    0.8920   17.7050   -1.9020 C   0  0  2  0  0  0  0  0  0  0  0  0
    1.2800   17.6950   -0.4100 C   0  0  0  0  0  0  0  0  0  0  0  0
    1.2050   19.0720    0.2550 C   0  0  0  0  0  0  0  0  0  0  0  0
   -0.0700   19.7830   -0.0840 C   0  0  2  0  0  0  0  0  0  0  0  0
   -0.8540   20.1800    1.0480 O   0  0  0  0  0  0  0  0  0  0  0  0
   -1.4470   19.2030    0.1780 C   0  0  0  0  0  0  0  0  0  0  0  0
   -1.6190   17.8550    0.8050 C   0  0  0  0  0  0  0  0  0  0  0  0
   -2.6060   19.7240   -0.6130 C   0  0  0  0  0  0  0  0  0  0  0  0
    0.4910   16.3030   -2.3450 C   0  0  1  0  0  0  0  0  0  0  0  0
    0.6110   16.1040   -3.8790 C   0  0  0  0  0  0  0  0  0  0  0  0
    1.0580   14.6380   -4.1070 C   0  0  0  0  0  0  0  0  0  0  0  0
    0.8600   13.9520   -2.7350 C   0  0  1  0  0  0  0  0  0  0  0  0
   -0.6620   13.6110   -2.6730 C   0  0  0  0  0  0  0  0  0  0  0  0
    1.7460   12.6940   -2.4560 C   0  0  2  0  0  0  0  0  0  0  0  0
    1.5110   11.5070   -3.4070 C   0  0  0  0  0  0  0  0  0  0  0  0
    0.4750   10.5290   -2.9620 C   0  0  0  0  0  0  0  0  0  0  0  0
   -0.0360   10.4410   -1.7200 C   0  0  0  0  0  0  0  0  0  0  0  0
    0.5010   11.3210   -0.5840 C   0  0  1  0  0  0  0  0  0  0  0  0
    0.7400   10.4490    0.6770 C   0  0  0  0  0  0  0  0  0  0  0  0
   -0.5000    9.6610    1.0870 C   0  0  0  0  0  0  0  0  0  0  0  0
   -0.9700    8.7550   -0.0490 C   0  0  2  0  0  0  0  0  0  0  0  0
    0.0160    7.7400   -0.2670 O   0  0  0  0  0  0  0  0  0  0  0  0
   -1.2330    9.5210   -1.3750 C   0  0  0  0  0  0  0  0  0  0  0  0
   -2.4960   10.4030   -1.2250 C   0  0  0  0  0  0  0  0  0  0  0  0
   -1.5620    8.4740   -2.4740 C   0  0  0  0  0  0  0  0  0  0  0  0
    1.7550   12.2290   -0.9440 C   0  0  1  0  0  0  0  0  0  0  0  0
    3.0740   11.4240   -0.7330 C   0  0  0  0  0  0  0  0  0  0  0  0
    1.8120   13.4450    0.0550 C   0  0  0  0  0  0  0  0  0  0  0  0
    1.0120   14.7030   -0.3340 C   0  0  0  0  0  0  0  0  0  0  0  0
    1.3100   15.1160   -1.7780 C   0  0  2  0  0  0  0  0  0  0  0  0
    2.8300   15.4870   -1.8660 C   0  0  0  0  0  0  0  0  0  0  0  0
    2.8406   18.6070   -2.1563 H   0  0  0  0  0  0  0  0  0  0  0  0
    2.3998   17.4132   -3.4241 H   0  0  0  0  0  0  0  0  0  0  0  0
    1.6452   19.0434   -3.4241 H   0  0  0  0  0  0  0  0  0  0  0  0
    0.0386   18.3896   -2.0164 H   0  0  0  0  0  0  0  0  0  0  0  0
    0.5980   17.0151    0.1216 H   0  0  0  0  0  0  0  0  0  0  0  0
    2.3285   17.3673   -0.3528 H   0  0  0  0  0  0  0  0  0  0  0  0
    1.2627   18.9445    1.3461 H   0  0  0  0  0  0  0  0  0  0  0  0
    2.0446   19.6781   -0.1162 H   0  0  0  0  0  0  0  0  0  0  0  0
    0.3870   20.2216   -0.9833 H   0  0  0  0  0  0  0  0  0  0  0  0
   -1.6061   17.9557    1.9003 H   0  0  0  0  0  0  0  0  0  0  0  0
   -2.5796   17.4229    0.4878 H   0  0  0  0  0  0  0  0  0  0  0  0
   -0.7977   17.1956    0.4878 H   0  0  0  0  0  0  0  0  0  0  0  0
   -3.3898   20.0763    0.0737 H   0  0  0  0  0  0  0  0  0  0  0  0
   -2.2717   20.5585   -1.2470 H   0  0  0  0  0  0  0  0  0  0  0  0
   -3.0082   18.9201   -1.2470 H   0  0  0  0  0  0  0  0  0  0  0  0
   -0.5361   16.2727   -1.9524 H   0  0  0  0  0  0  0  0  0  0  0  0
   -0.3614   16.2827   -4.3612 H   0  0  0  0  0  0  0  0  0  0  0  0
    1.3351   16.8093   -4.3129 H   0  0  0  0  0  0  0  0  0  0  0  0
    0.4348   14.1570   -4.8752 H   0  0  0  0  0  0  0  0  0  0  0  0
    2.0969   14.5690   -4.4619 H   0  0  0  0  0  0  0  0  0  0  0  0
   -0.9793   13.5399   -1.6222 H   0  0  0  0  0  0  0  0  0  0  0  0
   -1.2360   14.4028   -3.1766 H   0  0  0  0  0  0  0  0  0  0  0  0
   -0.8433   12.6500   -3.1766 H   0  0  0  0  0  0  0  0  0  0  0  0
    2.7571   13.0635   -2.6820 H   0  0  0  0  0  0  0  0  0  0  0  0
    1.2016   11.9094   -4.3829 H   0  0  0  0  0  0  0  0  0  0  0  0
    2.4597   10.9513   -3.4403 H   0  0  0  0  0  0  0  0  0  0  0  0
    0.0970    9.8198   -3.7131 H   0  0  0  0  0  0  0  0  0  0  0  0
   -0.2819   12.0663   -0.3802 H   0  0  0  0  0  0  0  0  0  0  0  0
    1.5545    9.7403    0.4664 H   0  0  0  0  0  0  0  0  0  0  0  0
    0.9956   11.1247    1.5066 H   0  0  0  0  0  0  0  0  0  0  0  0
   -0.2601    9.0430    1.9648 H   0  0  0  0  0  0  0  0  0  0  0  0
   -1.3050   10.3716    1.3259 H   0  0  0  0  0  0  0  0  0  0  0  0
   -1.9317    8.3163    0.2554 H   0  0  0  0  0  0  0  0  0  0  0  0
    0.7770    7.9420    0.3040 H   0  0  0  0  0  0  0  0  0  0  0  0
   -2.7128   10.5544   -0.1573 H   0  0  0  0  0  0  0  0  0  0  0  0
   -2.3222   11.3771   -1.7056 H   0  0  0  0  0  0  0  0  0  0  0  0
   -3.3506    9.9044   -1.7056 H   0  0  0  0  0  0  0  0  0  0  0  0
   -1.8597    7.5267   -2.0006 H   0  0  0  0  0  0  0  0  0  0  0  0
   -2.3865    8.8461   -3.0999 H   0  0  0  0  0  0  0  0  0  0  0  0
   -0.6728    8.3076   -3.0999 H   0  0  0  0  0  0  0  0  0  0  0  0
    3.2643   11.3078    0.3442 H   0  0  0  0  0  0  0  0  0  0  0  0
    2.9761   10.4315   -1.1972 H   0  0  0  0  0  0  0  0  0  0  0  0
    3.9119   11.9648   -1.1972 H   0  0  0  0  0  0  0  0  0  0  0  0
    1.4312   13.0958    1.0261 H   0  0  0  0  0  0  0  0  0  0  0  0
    2.8647   13.7639    0.0597 H   0  0  0  0  0  0  0  0  0  0  0  0
   -0.0628   14.4911   -0.2346 H   0  0  0  0  0  0  0  0  0  0  0  0
    1.3051   15.5261    0.3343 H   0  0  0  0  0  0  0  0  0  0  0  0
    3.2422   15.5876   -0.8511 H   0  0  0  0  0  0  0  0  0  0  0  0
    3.3703   14.6944   -2.4043 H   0  0  0  0  0  0  0  0  0  0  0  0
    2.9444   16.4394   -2.4043 H   0  0  0  0  0  0  0  0  0  0  0  0
  1  2  1  0
  2  3  1  0
  3  4  1  0
  4  5  1  0
  5  6  1  0
  6  7  1  0
  7  8  1  0
  7  9  1  0
  2 10  1  0
 10 11  1  0
 11 12  1  0
 12 13  1  0
 13 14  1  1
 13 15  1  0
 15 16  1  0
 16 17  1  0
 17 18  2  0
 18 19  1  0
 19 20  1  0
 20 21  1  0
 21 22  1  0
 22 23  1  0
 22 24  1  0
 24 25  1  0
 24 26  1  0
 19 27  1  0
 27 28  1  6
 27 29  1  0
 29 30  1  0
 30 31  1  0
 31 32  1  1
  7  5  1  0
 31 10  1  0
 31 13  1  0
 27 15  1  0
 24 18  1  0
  1 33  1  0
  1 34  1  0
  1 35  1  0
  2 36  1  1
  3 37  1  0
  3 38  1  0
  4 39  1  0
  4 40  1  0
  5 41  1  6
  8 42  1  0
  8 43  1  0
  8 44  1  0
  9 45  1  0
  9 46  1  0
  9 47  1  0
 10 48  1  1
 11 49  1  0
 11 50  1  0
 12 51  1  0
 12 52  1  0
 14 53  1  0
 14 54  1  0
 14 55  1  0
 15 56  1  6
 16 57  1  0
 16 58  1  0
 17 59  1  0
 19 60  1  1
 20 61  1  0
 20 62  1  0
 21 63  1  0
 21 64  1  0
 22 65  1  1
 23 66  1  0
 25 67  1  0
 25 68  1  0
 25 69  1  0
 26 70  1  0
 26 71  1  0
 26 72  1  0
 28 73  1  0
 28 74  1  0
 28 75  1  0
 29 76  1  0
 29 77  1  0
 30 78  1  0
 30 79  1  0
 32 80  1  0
 32 81  1  0
 32 82  1  0
M  END
>  <meeko>  (4) 
{"is_sidechain": [false], "intermolecular_energy": 2.731, "internal_energy": -0.839}

$$$$
EPH_relaxed_0001_pdb2pqr_Repair_386_r2_0001_out
     RDKit          3D

 82 86  0  0  0  0  0  0  0  0999 V2000
    3.8610   17.5000    0.5130 C   0  0  0  0  0  0  0  0  0  0  0  0
    2.8730   17.8680   -0.5970 C   0  0  2  0  0  0  0  0  0  0  0  0
    2.2410   19.2570   -0.3750 C   0  0  0  0  0  0  0  0  0  0  0  0
    1.2670   19.3090    0.8050 C   0  0  0  0  0  0  0  0  0  0  0  0
   -0.0130   19.9970    0.4380 C   0  0  2  0  0  0  0  0  0  0  0  0
   -0.9240   20.1880    1.5280 O   0  0  0  0  0  0  0  0  0  0  0  0
   -1.3690   19.3180    0.4750 C   0  0  0  0  0  0  0  0  0  0  0  0
   -1.5130   17.8870    0.8890 C   0  0  0  0  0  0  0  0  0  0  0  0
   -2.4780   19.8890   -0.3510 C   0  0  0  0  0  0  0  0  0  0  0  0
    1.7810   16.8090   -0.6940 C   0  0  1  0  0  0  0  0  0  0  0  0
    0.5050   17.3290   -1.4070 C   0  0  0  0  0  0  0  0  0  0  0  0
   -0.0790   16.1360   -2.2060 C   0  0  0  0  0  0  0  0  0  0  0  0
    0.6790   14.8990   -1.6700 C   0  0  1  0  0  0  0  0  0  0  0  0
   -0.0500   14.5270   -0.3410 C   0  0  0  0  0  0  0  0  0  0  0  0
    0.7750   13.6750   -2.6380 C   0  0  2  0  0  0  0  0  0  0  0  0
   -0.5720   13.0410   -3.0250 C   0  0  0  0  0  0  0  0  0  0  0  0
   -1.0400   11.9410   -2.1300 C   0  0  0  0  0  0  0  0  0  0  0  0
   -0.2810   11.2870   -1.2320 C   0  0  0  0  0  0  0  0  0  0  0  0
    1.2230   11.5710   -1.1160 C   0  0  1  0  0  0  0  0  0  0  0  0
    2.0000   10.2300   -1.0550 C   0  0  0  0  0  0  0  0  0  0  0  0
    1.4930    9.3090    0.0510 C   0  0  0  0  0  0  0  0  0  0  0  0
    0.0080    9.0030   -0.1320 C   0  0  2  0  0  0  0  0  0  0  0  0
   -0.1590    8.2230   -1.3200 O   0  0  0  0  0  0  0  0  0  0  0  0
   -0.8740   10.2800   -0.2170 C   0  0  0  0  0  0  0  0  0  0  0  0
   -0.9320   10.9660    1.1710 C   0  0  0  0  0  0  0  0  0  0  0  0
   -2.3260    9.8360   -0.5420 C   0  0  0  0  0  0  0  0  0  0  0  0
    1.8230   12.5760   -2.1910 C   0  0  1  0  0  0  0  0  0  0  0  0
    2.2290   11.7980   -3.4790 C   0  0  0  0  0  0  0  0  0  0  0  0
    3.1470   13.2090   -1.6190 C   0  0  0  0  0  0  0  0  0  0  0  0
    2.9960   14.4860   -0.7700 C   0  0  0  0  0  0  0  0  0  0  0  0
    2.1130   15.5160   -1.4800 C   0  0  2  0  0  0  0  0  0  0  0  0
    2.8310   15.9260   -2.8110 C   0  0  0  0  0  0  0  0  0  0  0  0
    3.3930   17.6743    1.4931 H   0  0  0  0  0  0  0  0  0  0  0  0
    4.1365   16.4390    0.4217 H   0  0  0  0  0  0  0  0  0  0  0  0
    4.7635   18.1223    0.4217 H   0  0  0  0  0  0  0  0  0  0  0  0
    3.4365   17.9083   -1.5408 H   0  0  0  0  0  0  0  0  0  0  0  0
    3.0488   19.9805   -0.1906 H   0  0  0  0  0  0  0  0  0  0  0  0
    1.6625   19.4950   -1.2798 H   0  0  0  0  0  0  0  0  0  0  0  0
    1.0401   18.2814    1.1254 H   0  0  0  0  0  0  0  0  0  0  0  0
    1.7422   19.8794    1.6167 H   0  0  0  0  0  0  0  0  0  0  0  0
    0.4979   20.5820   -0.3409 H   0  0  0  0  0  0  0  0  0  0  0  0
   -1.5196   17.8219    1.9870 H   0  0  0  0  0  0  0  0  0  0  0  0
   -2.4563   17.4836    0.4921 H   0  0  0  0  0  0  0  0  0  0  0  0
   -0.6690   17.3038    0.4921 H   0  0  0  0  0  0  0  0  0  0  0  0
   -3.2589   20.2911    0.3113 H   0  0  0  0  0  0  0  0  0  0  0  0
   -2.0841   20.6964   -0.9858 H   0  0  0  0  0  0  0  0  0  0  0  0
   -2.9064   19.0994   -0.9858 H   0  0  0  0  0  0  0  0  0  0  0  0
    1.6530   16.5781    0.3739 H   0  0  0  0  0  0  0  0  0  0  0  0
   -0.2262   17.6820   -0.6649 H   0  0  0  0  0  0  0  0  0  0  0  0
    0.7407   18.1724   -2.0727 H   0  0  0  0  0  0  0  0  0  0  0  0
   -1.1594   16.0384   -2.0239 H   0  0  0  0  0  0  0  0  0  0  0  0
    0.0429   16.2617   -3.2920 H   0  0  0  0  0  0  0  0  0  0  0  0
    0.5653   14.8410    0.5150 H   0  0  0  0  0  0  0  0  0  0  0  0
   -1.0228   15.0389   -0.3007 H   0  0  0  0  0  0  0  0  0  0  0  0
   -0.2063   13.4389   -0.3007 H   0  0  0  0  0  0  0  0  0  0  0  0
    1.1647   14.1334   -3.5589 H   0  0  0  0  0  0  0  0  0  0  0  0
   -1.3351   13.8332   -3.0175 H   0  0  0  0  0  0  0  0  0  0  0  0
   -0.4204   12.5846   -4.0143 H   0  0  0  0  0  0  0  0  0  0  0  0
   -2.0948   11.6399   -2.2119 H   0  0  0  0  0  0  0  0  0  0  0  0
    1.3570   12.1226   -0.1738 H   0  0  0  0  0  0  0  0  0  0  0  0
    1.8903    9.7148   -2.0207 H   0  0  0  0  0  0  0  0  0  0  0  0
    3.0527   10.4640   -0.8379 H   0  0  0  0  0  0  0  0  0  0  0  0
    2.0607    8.3672    0.0238 H   0  0  0  0  0  0  0  0  0  0  0  0
    1.6311    9.8133    1.0188 H   0  0  0  0  0  0  0  0  0  0  0  0
   -0.3270    8.4488    0.7572 H   0  0  0  0  0  0  0  0  0  0  0  0
    0.6100    7.6320   -1.3940 H   0  0  0  0  0  0  0  0  0  0  0  0
   -0.8675   10.2026    1.9603 H   0  0  0  0  0  0  0  0  0  0  0  0
   -0.0899   11.6669    1.2691 H   0  0  0  0  0  0  0  0  0  0  0  0
   -1.8798   11.5156    1.2691 H   0  0  0  0  0  0  0  0  0  0  0  0
   -2.8764    9.6677    0.3954 H   0  0  0  0  0  0  0  0  0  0  0  0
   -2.8277   10.6218   -1.1258 H   0  0  0  0  0  0  0  0  0  0  0  0
   -2.3025    8.9040   -1.1258 H   0  0  0  0  0  0  0  0  0  0  0  0
    2.7210   10.8551   -3.1981 H   0  0  0  0  0  0  0  0  0  0  0  0
    1.3300   11.5794   -4.0740 H   0  0  0  0  0  0  0  0  0  0  0  0
    2.9225   12.4104   -4.0740 H   0  0  0  0  0  0  0  0  0  0  0  0
    3.6357   12.4485   -0.9922 H   0  0  0  0  0  0  0  0  0  0  0  0
    3.7239   13.5177   -2.5032 H   0  0  0  0  0  0  0  0  0  0  0  0
    2.5381   14.2241    0.1953 H   0  0  0  0  0  0  0  0  0  0  0  0
    3.9929   14.9251   -0.6172 H   0  0  0  0  0  0  0  0  0  0  0  0
    3.7640   16.4588   -2.5752 H   0  0  0  0  0  0  0  0  0  0  0  0
    3.0619   15.0236   -3.3961 H   0  0  0  0  0  0  0  0  0  0  0  0
    2.1711   16.5835   -3.3961 H   0  0  0  0  0  0  0  0  0  0  0  0
  1  2  1  0
  2  3  1  0
  3  4  1  0
  4  5  1  0
  5  6  1  0
  6  7  1  0
  7  8  1  0
  7  9  1  0
  2 10  1  0
 10 11  1  0
 11 12  1  0
 12 13  1  0
 13 14  1  1
 13 15  1  0
 15 16  1  0
 16 17  1  0
 17 18  2  0
 18 19  1  0
 19 20  1  0
 20 21  1  0
 21 22  1  0
 22 23  1  0
 22 24  1  0
 24 25  1  0
 24 26  1  0
 19 27  1  0
 27 28  1  6
 27 29  1  0
 29 30  1  0
 30 31  1  0
 31 32  1  6
  7  5  1  0
 31 10  1  0
 31 13  1  0
 27 15  1  0
 24 18  1  0
  1 33  1  0
  1 34  1  0
  1 35  1  0
  2 36  1  6
  3 37  1  0
  3 38  1  0
  4 39  1  0
  4 40  1  0
  5 41  1  6
  8 42  1  0
  8 43  1  0
  8 44  1  0
  9 45  1  0
  9 46  1  0
  9 47  1  0
 10 48  1  1
 11 49  1  0
 11 50  1  0
 12 51  1  0
 12 52  1  0
 14 53  1  0
 14 54  1  0
 14 55  1  0
 15 56  1  6
 16 57  1  0
 16 58  1  0
 17 59  1  0
 19 60  1  1
 20 61  1  0
 20 62  1  0
 21 63  1  0
 21 64  1  0
 22 65  1  1
 23 66  1  0
 25 67  1  0
 25 68  1  0
 25 69  1  0
 26 70  1  0
 26 71  1  0
 26 72  1  0
 28 73  1  0
 28 74  1  0
 28 75  1  0
 29 76  1  0
 29 77  1  0
 30 78  1  0
 30 79  1  0
 32 80  1  0
 32 81  1  0
 32 82  1  0
M  END
>  <meeko>  (5) 
{"is_sidechain": [false], "intermolecular_energy": 2.731, "internal_energy": -0.839}

$$$$
EPH_relaxed_0001_pdb2pqr_Repair_386_r2_0001_out
     RDKit          3D

 82 86  0  0  0  0  0  0  0  0999 V2000
   -4.9800    6.2280   -1.9580 C   0  0  0  0  0  0  0  0  0  0  0  0
   -5.4230    7.6920   -1.8810 C   0  0  2  0  0  0  0  0  0  0  0  0
   -5.2530    8.2760   -0.4650 C   0  0  0  0  0  0  0  0  0  0  0  0
   -4.1870    9.3710   -0.3740 C   0  0  0  0  0  0  0  0  0  0  0  0
   -2.8170    8.8360   -0.6600 C   0  0  2  0  0  0  0  0  0  0  0  0
   -1.8090    9.2400    0.2760 O   0  0  0  0  0  0  0  0  0  0  0  0
   -1.6460    9.7090   -1.0720 C   0  0  0  0  0  0  0  0  0  0  0  0
   -1.7930   11.1900   -1.2230 C   0  0  0  0  0  0  0  0  0  0  0  0
   -0.5010    9.0740   -1.7970 C   0  0  0  0  0  0  0  0  0  0  0  0
   -6.8750    7.8190   -2.3270 C   0  0  1  0  0  0  0  0  0  0  0  0
   -7.1710    7.0330   -3.6320 C   0  0  0  0  0  0  0  0  0  0  0  0
   -8.6180    6.4910   -3.5090 C   0  0  0  0  0  0  0  0  0  0  0  0
   -9.2190    7.2520   -2.3040 C   0  0  1  0  0  0  0  0  0  0  0  0
   -9.6520    8.6370   -2.8790 C   0  0  0  0  0  0  0  0  0  0  0  0
  -10.3950    6.5440   -1.5570 C   0  0  2  0  0  0  0  0  0  0  0  0
  -11.6570    6.3060   -2.4040 C   0  0  0  0  0  0  0  0  0  0  0  0
  -12.6670    7.4050   -2.3680 C   0  0  0  0  0  0  0  0  0  0  0  0
  -12.7020    8.4050   -1.4680 C   0  0  0  0  0  0  0  0  0  0  0  0
  -11.7130    8.4450   -0.2960 C   0  0  1  0  0  0  0  0  0  0  0  0
  -12.4790    8.7590    1.0170 C   0  0  0  0  0  0  0  0  0  0  0  0
  -13.3150   10.0310    0.9150 C   0  0  0  0  0  0  0  0  0  0  0  0
  -14.3250    9.9300   -0.2250 C   0  0  2  0  0  0  0  0  0  0  0  0
  -15.2870    8.9220    0.1000 O   0  0  0  0  0  0  0  0  0  0  0  0
  -13.6710    9.6060   -1.5970 C   0  0  0  0  0  0  0  0  0  0  0  0
  -12.8630   10.8320   -2.0900 C   0  0  0  0  0  0  0  0  0  0  0  0
  -14.8090    9.3920   -2.6300 C   0  0  0  0  0  0  0  0  0  0  0  0
  -10.7530    7.1860   -0.1550 C   0  0  1  0  0  0  0  0  0  0  0  0
  -11.4560    6.0710    0.6790 C   0  0  0  0  0  0  0  0  0  0  0  0
   -9.4700    7.6060    0.6560 C   0  0  0  0  0  0  0  0  0  0  0  0
   -8.2960    8.1880   -0.1540 C   0  0  0  0  0  0  0  0  0  0  0  0
   -7.9650    7.2990   -1.3560 C   0  0  2  0  0  0  0  0  0  0  0  0
   -7.5050    5.9050   -0.8080 C   0  0  0  0  0  0  0  0  0  0  0  0
   -4.8588    5.8276   -0.9407 H   0  0  0  0  0  0  0  0  0  0  0  0
   -5.7411    5.6423   -2.4943 H   0  0  0  0  0  0  0  0  0  0  0  0
   -4.0218    6.1626   -2.4943 H   0  0  0  0  0  0  0  0  0  0  0  0
   -4.7750    8.2705   -2.5559 H   0  0  0  0  0  0  0  0  0  0  0  0
   -6.2161    8.7019   -0.1472 H   0  0  0  0  0  0  0  0  0  0  0  0
   -4.9232    7.4520    0.1848 H   0  0  0  0  0  0  0  0  0  0  0  0
   -4.4218   10.1587   -1.1050 H   0  0  0  0  0  0  0  0  0  0  0  0
   -4.1921    9.7701    0.6510 H   0  0  0  0  0  0  0  0  0  0  0  0
   -3.2408    7.9178   -1.0928 H   0  0  0  0  0  0  0  0  0  0  0  0
   -1.8394   11.6572   -0.2282 H   0  0  0  0  0  0  0  0  0  0  0  0
   -0.9301   11.5896   -1.7759 H   0  0  0  0  0  0  0  0  0  0  0  0
   -2.7176   11.4122   -1.7759 H   0  0  0  0  0  0  0  0  0  0  0  0
    0.2189    8.6748   -1.0673 H   0  0  0  0  0  0  0  0  0  0  0  0
   -0.8757    8.2548   -2.4283 H   0  0  0  0  0  0  0  0  0  0  0  0
   -0.0046    9.8257   -2.4283 H   0  0  0  0  0  0  0  0  0  0  0  0
   -6.9441    8.9129   -2.4196 H   0  0  0  0  0  0  0  0  0  0  0  0
   -7.0891    7.7000   -4.5028 H   0  0  0  0  0  0  0  0  0  0  0  0
   -6.4521    6.2120   -3.7703 H   0  0  0  0  0  0  0  0  0  0  0  0
   -9.1902    6.7003   -4.4249 H   0  0  0  0  0  0  0  0  0  0  0  0
   -8.6442    5.4003   -3.3685 H   0  0  0  0  0  0  0  0  0  0  0  0
   -9.8677    9.3270   -2.0499 H   0  0  0  0  0  0  0  0  0  0  0  0
   -8.8395    9.0480   -3.4962 H   0  0  0  0  0  0  0  0  0  0  0  0
  -10.5539    8.5120   -3.4962 H   0  0  0  0  0  0  0  0  0  0  0  0
   -9.9783    5.5463   -1.3544 H   0  0  0  0  0  0  0  0  0  0  0  0
  -11.3434    6.1669   -3.4491 H   0  0  0  0  0  0  0  0  0  0  0  0
  -12.1518    5.4242   -1.9709 H   0  0  0  0  0  0  0  0  0  0  0  0
  -13.4483    7.3966   -3.1423 H   0  0  0  0  0  0  0  0  0  0  0  0
  -11.0075    9.2583   -0.5213 H   0  0  0  0  0  0  0  0  0  0  0  0
  -13.1466    7.9154    1.2464 H   0  0  0  0  0  0  0  0  0  0  0  0
  -11.7332    8.9117    1.8110 H   0  0  0  0  0  0  0  0  0  0  0  0
  -13.8544   10.1841    1.8614 H   0  0  0  0  0  0  0  0  0  0  0  0
  -12.6425   10.8780    0.7142 H   0  0  0  0  0  0  0  0  0  0  0  0
  -14.8023   10.9154   -0.3311 H   0  0  0  0  0  0  0  0  0  0  0  0
  -15.9780    9.3380    0.6430 H   0  0  0  0  0  0  0  0  0  0  0  0
  -12.4901   11.3979   -1.2236 H   0  0  0  0  0  0  0  0  0  0  0  0
  -12.0126   10.4902   -2.6983 H   0  0  0  0  0  0  0  0  0  0  0  0
  -13.5125   11.4787   -2.6983 H   0  0  0  0  0  0  0  0  0  0  0  0
  -15.7564    9.2138   -2.1002 H   0  0  0  0  0  0  0  0  0  0  0  0
  -14.9046   10.2879   -3.2610 H   0  0  0  0  0  0  0  0  0  0  0  0
  -14.5727    8.5226   -3.2610 H   0  0  0  0  0  0  0  0  0  0  0  0
  -11.3255    6.2780    1.7514 H   0  0  0  0  0  0  0  0  0  0  0  0
  -12.5289    6.0534    0.4369 H   0  0  0  0  0  0  0  0  0  0  0  0
  -11.0094    5.0953    0.4369 H   0  0  0  0  0  0  0  0  0  0  0  0
   -9.7750    8.3646    1.3919 H   0  0  0  0  0  0  0  0  0  0  0  0
   -9.0850    6.6714    1.0899 H   0  0  0  0  0  0  0  0  0  0  0  0
   -8.5689    9.1913   -0.5129 H   0  0  0  0  0  0  0  0  0  0  0  0
   -7.4116    8.2395    0.4981 H   0  0  0  0  0  0  0  0  0  0  0  0
   -7.5110    5.9232    0.2918 H   0  0  0  0  0  0  0  0  0  0  0  0
   -8.1934    5.1251   -1.1656 H   0  0  0  0  0  0  0  0  0  0  0  0
   -6.4876    5.6880   -1.1656 H   0  0  0  0  0  0  0  0  0  0  0  0
  1  2  1  0
  2  3  1  0
  3  4  1  0
  4  5  1  0
  5  6  1  0
  6  7  1  0
  7  8  1  0
  7  9  1  0
  2 10  1  0
 10 11  1  0
 11 12  1  0
 12 13  1  0
 13 14  1  6
 13 15  1  0
 15 16  1  0
 16 17  1  0
 17 18  2  0
 18 19  1  0
 19 20  1  0
 20 21  1  0
 21 22  1  0
 22 23  1  0
 22 24  1  0
 24 25  1  0
 24 26  1  0
 19 27  1  0
 27 28  1  1
 27 29  1  0
 29 30  1  0
 30 31  1  0
 31 32  1  1
  7  5  1  0
 31 10  1  0
 31 13  1  0
 27 15  1  0
 24 18  1  0
  1 33  1  0
  1 34  1  0
  1 35  1  0
  2 36  1  6
  3 37  1  0
  3 38  1  0
  4 39  1  0
  4 40  1  0
  5 41  1  6
  8 42  1  0
  8 43  1  0
  8 44  1  0
  9 45  1  0
  9 46  1  0
  9 47  1  0
 10 48  1  6
 11 49  1  0
 11 50  1  0
 12 51  1  0
 12 52  1  0
 14 53  1  0
 14 54  1  0
 14 55  1  0
 15 56  1  1
 16 57  1  0
 16 58  1  0
 17 59  1  0
 19 60  1  6
 20 61  1  0
 20 62  1  0
 21 63  1  0
 21 64  1  0
 22 65  1  6
 23 66  1  0
 25 67  1  0
 25 68  1  0
 25 69  1  0
 26 70  1  0
 26 71  1  0
 26 72  1  0
 28 73  1  0
 28 74  1  0
 28 75  1  0
 29 76  1  0
 29 77  1  0
 30 78  1  0
 30 79  1  0
 32 80  1  0
 32 81  1  0
 32 82  1  0
M  END
>  <meeko>  (6) 
{"is_sidechain": [false], "intermolecular_energy": 2.731, "internal_energy": -0.839}

$$$$
EPH_relaxed_0001_pdb2pqr_Repair_386_r2_0001_out
     RDKit          3D

 82 86  0  0  0  0  0  0  0  0999 V2000
    0.4450    8.7980   -2.3510 C   0  0  0  0  0  0  0  0  0  0  0  0
    1.1820    9.9390   -3.0570 C   0  0  2  0  0  0  0  0  0  0  0  0
    2.6840    9.9630   -2.7100 C   0  0  0  0  0  0  0  0  0  0  0  0
    3.5590   10.5810   -3.8040 C   0  0  0  0  0  0  0  0  0  0  0  0
    4.9560   10.8280   -3.3230 C   0  0  2  0  0  0  0  0  0  0  0  0
    5.5510   12.0400   -3.8060 O   0  0  0  0  0  0  0  0  0  0  0  0
    6.1700   10.8160   -4.2340 C   0  0  0  0  0  0  0  0  0  0  0  0
    6.0410   10.5490   -5.7010 C   0  0  0  0  0  0  0  0  0  0  0  0
    7.5180   10.5780   -3.6270 C   0  0  0  0  0  0  0  0  0  0  0  0
    0.5420   11.2740   -2.6950 C   0  0  1  0  0  0  0  0  0  0  0  0
   -0.8340   11.1070   -1.9970 C   0  0  0  0  0  0  0  0  0  0  0  0
   -0.9490   12.2510   -0.9570 C   0  0  0  0  0  0  0  0  0  0  0  0
    0.2000   13.2220   -1.3160 C   0  0  1  0  0  0  0  0  0  0  0  0
   -0.3520   14.0750   -2.5010 C   0  0  0  0  0  0  0  0  0  0  0  0
    0.7300   14.1240   -0.1540 C   0  0  2  0  0  0  0  0  0  0  0  0
   -0.3000   15.1030    0.4360 C   0  0  0  0  0  0  0  0  0  0  0  0
   -0.3450   16.4470   -0.2110 C   0  0  0  0  0  0  0  0  0  0  0  0
    0.5950   16.9540   -1.0300 C   0  0  0  0  0  0  0  0  0  0  0  0
    1.8970   16.1880   -1.3020 C   0  0  1  0  0  0  0  0  0  0  0  0
    3.1030   17.1570   -1.1770 C   0  0  0  0  0  0  0  0  0  0  0  0
    2.9560   18.3910   -2.0610 C   0  0  0  0  0  0  0  0  0  0  0  0
    1.6800   19.1570   -1.7210 C   0  0  2  0  0  0  0  0  0  0  0  0
    1.8060   19.7010   -0.4040 O   0  0  0  0  0  0  0  0  0  0  0  0
    0.3990   18.2810   -1.8030 C   0  0  0  0  0  0  0  0  0  0  0  0
    0.0950   17.9400   -3.2830 C   0  0  0  0  0  0  0  0  0  0  0  0
   -0.7970   19.1340   -1.3000 C   0  0  0  0  0  0  0  0  0  0  0  0
    2.1010   14.8490   -0.4710 C   0  0  1  0  0  0  0  0  0  0  0  0
    2.7620   15.1720    0.9040 C   0  0  0  0  0  0  0  0  0  0  0  0
    3.1080   13.9150   -1.2400 C   0  0  0  0  0  0  0  0  0  0  0  0
    2.5080   12.9620   -2.2910 C   0  0  0  0  0  0  0  0  0  0  0  0
    1.3170   12.1910   -1.7150 C   0  0  2  0  0  0  0  0  0  0  0  0
    1.8450   11.3070   -0.5340 C   0  0  0  0  0  0  0  0  0  0  0  0
    0.5280    8.9265   -1.2617 H   0  0  0  0  0  0  0  0  0  0  0  0
   -0.6157    8.8111   -2.6420 H   0  0  0  0  0  0  0  0  0  0  0  0
    0.8932    7.8365   -2.6420 H   0  0  0  0  0  0  0  0  0  0  0  0
    1.0966    9.7676   -4.1402 H   0  0  0  0  0  0  0  0  0  0  0  0
    2.8179   10.5466   -1.7873 H   0  0  0  0  0  0  0  0  0  0  0  0
    3.0040    8.9169   -2.5953 H   0  0  0  0  0  0  0  0  0  0  0  0
    3.5939    9.8945   -4.6628 H   0  0  0  0  0  0  0  0  0  0  0  0
    3.1189   11.5478   -4.0896 H   0  0  0  0  0  0  0  0  0  0  0  0
    4.7426   10.3194   -2.3713 H   0  0  0  0  0  0  0  0  0  0  0  0
    5.5672    9.5683   -5.8549 H   0  0  0  0  0  0  0  0  0  0  0  0
    5.4218   11.3320   -6.1631 H   0  0  0  0  0  0  0  0  0  0  0  0
    7.0392   10.5505   -6.1631 H   0  0  0  0  0  0  0  0  0  0  0  0
    7.4341   10.5928   -2.5303 H   0  0  0  0  0  0  0  0  0  0  0  0
    7.8989    9.5987   -3.9524 H   0  0  0  0  0  0  0  0  0  0  0  0
    8.2112   11.3676   -3.9524 H   0  0  0  0  0  0  0  0  0  0  0  0
    0.5026   11.7367   -3.6922 H   0  0  0  0  0  0  0  0  0  0  0  0
   -1.6454   11.1835   -2.7358 H   0  0  0  0  0  0  0  0  0  0  0  0
   -0.9145   10.1228   -1.5124 H   0  0  0  0  0  0  0  0  0  0  0  0
   -1.9233   12.7548   -1.0401 H   0  0  0  0  0  0  0  0  0  0  0  0
   -0.8765   11.8833    0.0772 H   0  0  0  0  0  0  0  0  0  0  0  0
   -0.9094   14.9364   -2.1043 H   0  0  0  0  0  0  0  0  0  0  0  0
    0.4862   14.4328   -3.1169 H   0  0  0  0  0  0  0  0  0  0  0  0
   -1.0218   13.4569   -3.1169 H   0  0  0  0  0  0  0  0  0  0  0  0
    0.9318   13.3902    0.6402 H   0  0  0  0  0  0  0  0  0  0  0  0
   -1.2962   14.6464    0.3409 H   0  0  0  0  0  0  0  0  0  0  0  0
    0.0072   15.2768    1.4778 H   0  0  0  0  0  0  0  0  0  0  0  0
   -1.2216   17.0773   -0.0005 H   0  0  0  0  0  0  0  0  0  0  0  0
    1.8214   15.8167   -2.3347 H   0  0  0  0  0  0  0  0  0  0  0  0
    3.1872   17.4818   -0.1294 H   0  0  0  0  0  0  0  0  0  0  0  0
    4.0019   16.6154   -1.5066 H   0  0  0  0  0  0  0  0  0  0  0  0
    3.8233   19.0498   -1.9066 H   0  0  0  0  0  0  0  0  0  0  0  0
    2.9015   18.0664   -3.1106 H   0  0  0  0  0  0  0  0  0  0  0  0
    1.5642   19.9534   -2.4709 H   0  0  0  0  0  0  0  0  0  0  0  0
    2.6020   19.3140   -0.0000 H   0  0  0  0  0  0  0  0  0  0  0  0
   -0.6364   17.1196   -3.3275 H   0  0  0  0  0  0  0  0  0  0  0  0
   -0.3177   18.8268   -3.7863 H   0  0  0  0  0  0  0  0  0  0  0  0
    1.0232   17.6315   -3.7863 H   0  0  0  0  0  0  0  0  0  0  0  0
   -0.8059   19.1404   -0.2001 H   0  0  0  0  0  0  0  0  0  0  0  0
   -0.6947   20.1642   -1.6718 H   0  0  0  0  0  0  0  0  0  0  0  0
   -1.7377   18.7017   -1.6718 H   0  0  0  0  0  0  0  0  0  0  0  0
    2.0958   14.8465    1.7166 H   0  0  0  0  0  0  0  0  0  0  0  0
    3.7225   14.6417    0.9827 H   0  0  0  0  0  0  0  0  0  0  0  0
    2.9339   16.2556    0.9827 H   0  0  0  0  0  0  0  0  0  0  0  0
    3.8352   14.5612   -1.7535 H   0  0  0  0  0  0  0  0  0  0  0  0
    3.5378   13.2588   -0.4688 H   0  0  0  0  0  0  0  0  0  0  0  0
    2.1713   13.5488   -3.1583 H   0  0  0  0  0  0  0  0  0  0  0  0
    3.2812   12.2397   -2.5916 H   0  0  0  0  0  0  0  0  0  0  0  0
    1.5677   11.7712    0.4239 H   0  0  0  0  0  0  0  0  0  0  0  0
    1.3979   10.3040   -0.5984 H   0  0  0  0  0  0  0  0  0  0  0  0
    2.9401   11.2251   -0.5984 H   0  0  0  0  0  0  0  0  0  0  0  0
  1  2  1  0
  2  3  1  0
  3  4  1  0
  4  5  1  0
  5  6  1  0
  6  7  1  0
  7  8  1  0
  7  9  1  0
  2 10  1  0
 10 11  1  0
 11 12  1  0
 12 13  1  0
 13 14  1  6
 13 15  1  0
 15 16  1  0
 16 17  1  0
 17 18  2  0
 18 19  1  0
 19 20  1  0
 20 21  1  0
 21 22  1  0
 22 23  1  0
 22 24  1  0
 24 25  1  0
 24 26  1  0
 19 27  1  0
 27 28  1  1
 27 29  1  0
 29 30  1  0
 30 31  1  0
 31 32  1  1
  7  5  1  0
 31 10  1  0
 31 13  1  0
 27 15  1  0
 24 18  1  0
  1 33  1  0
  1 34  1  0
  1 35  1  0
  2 36  1  6
  3 37  1  0
  3 38  1  0
  4 39  1  0
  4 40  1  0
  5 41  1  1
  8 42  1  0
  8 43  1  0
  8 44  1  0
  9 45  1  0
  9 46  1  0
  9 47  1  0
 10 48  1  6
 11 49  1  0
 11 50  1  0
 12 51  1  0
 12 52  1  0
 14 53  1  0
 14 54  1  0
 14 55  1  0
 15 56  1  1
 16 57  1  0
 16 58  1  0
 17 59  1  0
 19 60  1  6
 20 61  1  0
 20 62  1  0
 21 63  1  0
 21 64  1  0
 22 65  1  6
 23 66  1  0
 25 67  1  0
 25 68  1  0
 25 69  1  0
 26 70  1  0
 26 71  1  0
 26 72  1  0
 28 73  1  0
 28 74  1  0
 28 75  1  0
 29 76  1  0
 29 77  1  0
 30 78  1  0
 30 79  1  0
 32 80  1  0
 32 81  1  0
 32 82  1  0
M  END
>  <meeko>  (7) 
{"is_sidechain": [false], "intermolecular_energy": 2.731, "internal_energy": -0.839}

$$$$
EPH_relaxed_0001_pdb2pqr_Repair_386_r2_0001_out
     RDKit          3D

 82 86  0  0  0  0  0  0  0  0999 V2000
   -4.9380    6.0340   -3.8850 C   0  0  0  0  0  0  0  0  0  0  0  0
   -5.6350    7.0930   -3.0270 C   0  0  2  0  0  0  0  0  0  0  0  0
   -4.8370    7.4230   -1.7490 C   0  0  0  0  0  0  0  0  0  0  0  0
   -3.3990    7.8730   -2.0210 C   0  0  0  0  0  0  0  0  0  0  0  0
   -2.8090    8.5860   -0.8420 C   0  0  2  0  0  0  0  0  0  0  0  0
   -2.8570   10.0170   -0.9230 O   0  0  0  0  0  0  0  0  0  0  0  0
   -1.5470    9.4250   -0.9180 C   0  0  0  0  0  0  0  0  0  0  0  0
   -0.7980    9.5940   -2.2020 C   0  0  0  0  0  0  0  0  0  0  0  0
   -0.7780    9.6750    0.3420 C   0  0  0  0  0  0  0  0  0  0  0  0
   -7.0380    6.6230   -2.6580 C   0  0  1  0  0  0  0  0  0  0  0  0
   -7.0440    5.2100   -2.0160 C   0  0  0  0  0  0  0  0  0  0  0  0
   -8.1750    5.2070   -0.9550 C   0  0  0  0  0  0  0  0  0  0  0  0
   -8.9900    6.4880   -1.2490 C   0  0  1  0  0  0  0  0  0  0  0  0
   -9.9290    6.1030   -2.4350 C   0  0  0  0  0  0  0  0  0  0  0  0
   -9.7920    7.0880   -0.0490 C   0  0  2  0  0  0  0  0  0  0  0  0
  -10.8890    6.1740    0.5250 C   0  0  0  0  0  0  0  0  0  0  0  0
  -12.2390    6.3340   -0.0930 C   0  0  0  0  0  0  0  0  0  0  0  0
  -12.6290    7.3650   -0.8650 C   0  0  0  0  0  0  0  0  0  0  0  0
  -11.7020    8.5630   -1.1060 C   0  0  1  0  0  0  0  0  0  0  0  0
  -12.4970    9.8810   -0.9150 C   0  0  0  0  0  0  0  0  0  0  0  0
  -13.7560    9.9350   -1.7760 C   0  0  0  0  0  0  0  0  0  0  0  0
  -14.6790    8.7590   -1.4660 C   0  0  2  0  0  0  0  0  0  0  0  0
  -15.1790    8.9050   -0.1330 O   0  0  0  0  0  0  0  0  0  0  0  0
  -13.9840    7.3770   -1.6150 C   0  0  0  0  0  0  0  0  0  0  0  0
  -13.7130    7.0900   -3.1130 C   0  0  0  0  0  0  0  0  0  0  0  0
  -14.9810    6.2870   -1.1380 C   0  0  0  0  0  0  0  0  0  0  0  0
  -10.3330    8.5540   -0.2980 C   0  0  1  0  0  0  0  0  0  0  0  0
  -10.5400    9.1970    1.1070 C   0  0  0  0  0  0  0  0  0  0  0  0
   -9.2860    9.4580   -1.0500 C   0  0  0  0  0  0  0  0  0  0  0  0
   -8.4400    8.7780   -2.1440 C   0  0  0  0  0  0  0  0  0  0  0  0
   -7.8250    7.4730   -1.6300 C   0  0  2  0  0  0  0  0  0  0  0  0
   -6.8580    7.8320   -0.4510 C   0  0  0  0  0  0  0  0  0  0  0  0
   -4.4515    5.2948   -3.2316 H   0  0  0  0  0  0  0  0  0  0  0  0
   -5.6811    5.5293   -4.5200 H   0  0  0  0  0  0  0  0  0  0  0  0
   -4.1806    6.5169   -4.5200 H   0  0  0  0  0  0  0  0  0  0  0  0
   -5.6967    8.0143   -3.6248 H   0  0  0  0  0  0  0  0  0  0  0  0
   -5.3580    8.2299   -1.2128 H   0  0  0  0  0  0  0  0  0  0  0  0
   -4.7780    6.4969   -1.1584 H   0  0  0  0  0  0  0  0  0  0  0  0
   -2.7852    6.9884   -2.2464 H   0  0  0  0  0  0  0  0  0  0  0  0
   -3.4129    8.5702   -2.8717 H   0  0  0  0  0  0  0  0  0  0  0  0
   -3.1149    7.7733   -0.1668 H   0  0  0  0  0  0  0  0  0  0  0  0
    0.2538    9.8313   -1.9844 H   0  0  0  0  0  0  0  0  0  0  0  0
   -0.8509    8.6613   -2.7828 H   0  0  0  0  0  0  0  0  0  0  0  0
   -1.2462   10.4136   -2.7828 H   0  0  0  0  0  0  0  0  0  0  0  0
   -1.4197    9.4664    1.2107 H   0  0  0  0  0  0  0  0  0  0  0  0
    0.1030    9.0170    0.3705 H   0  0  0  0  0  0  0  0  0  0  0  0
   -0.4523   10.7253    0.3705 H   0  0  0  0  0  0  0  0  0  0  0  0
   -7.5199    6.6861   -3.6448 H   0  0  0  0  0  0  0  0  0  0  0  0
   -7.2414    4.4462   -2.7826 H   0  0  0  0  0  0  0  0  0  0  0  0
   -6.0710    4.9797   -1.5575 H   0  0  0  0  0  0  0  0  0  0  0  0
   -8.8058    4.3123   -1.0626 H   0  0  0  0  0  0  0  0  0  0  0  0
   -7.7827    5.1891    0.0725 H   0  0  0  0  0  0  0  0  0  0  0  0
  -10.8786    5.7136   -2.0393 H   0  0  0  0  0  0  0  0  0  0  0  0
  -10.1258    6.9930   -3.0507 H   0  0  0  0  0  0  0  0  0  0  0  0
   -9.4443    5.3310   -3.0507 H   0  0  0  0  0  0  0  0  0  0  0  0
   -9.0233    7.1608    0.7345 H   0  0  0  0  0  0  0  0  0  0  0  0
  -10.5713    5.1306    0.3826 H   0  0  0  0  0  0  0  0  0  0  0  0
  -11.0016    6.4593    1.5814 H   0  0  0  0  0  0  0  0  0  0  0  0
  -12.9775    5.5417    0.0991 H   0  0  0  0  0  0  0  0  0  0  0  0
  -11.3636    8.4796   -2.1493 H   0  0  0  0  0  0  0  0  0  0  0  0
  -12.7888    9.9668    0.1421 H   0  0  0  0  0  0  0  0  0  0  0  0
  -11.8454   10.7117   -1.2238 H   0  0  0  0  0  0  0  0  0  0  0  0
  -14.2903   10.8751   -1.5741 H   0  0  0  0  0  0  0  0  0  0  0  0
  -13.4606    9.8805   -2.8342 H   0  0  0  0  0  0  0  0  0  0  0  0
  -15.4963    8.7788   -2.2020 H   0  0  0  0  0  0  0  0  0  0  0  0
  -15.3300    9.8530    0.0230 H   0  0  0  0  0  0  0  0  0  0  0  0
  -12.9603    6.2929   -3.2033 H   0  0  0  0  0  0  0  0  0  0  0  0
  -14.6461    6.7700   -3.5997 H   0  0  0  0  0  0  0  0  0  0  0  0
  -13.3401    8.0033   -3.5997 H   0  0  0  0  0  0  0  0  0  0  0  0
  -15.0014    6.2647   -0.0384 H   0  0  0  0  0  0  0  0  0  0  0  0
  -15.9868    6.5181   -1.5188 H   0  0  0  0  0  0  0  0  0  0  0  0
  -14.6613    5.3058   -1.5188 H   0  0  0  0  0  0  0  0  0  0  0  0
  -10.3023    8.4585    1.8868 H   0  0  0  0  0  0  0  0  0  0  0  0
   -9.8770   10.0683    1.2128 H   0  0  0  0  0  0  0  0  0  0  0  0
  -11.5868    9.5179    1.2128 H   0  0  0  0  0  0  0  0  0  0  0  0
   -9.8378   10.2845   -1.5216 H   0  0  0  0  0  0  0  0  0  0  0  0
   -8.5650    9.7662   -0.2785 H   0  0  0  0  0  0  0  0  0  0  0  0
   -9.0817    8.5568   -3.0096 H   0  0  0  0  0  0  0  0  0  0  0  0
   -7.6260    9.4596   -2.4320 H   0  0  0  0  0  0  0  0  0  0  0  0
   -7.3634    7.6444    0.5078 H   0  0  0  0  0  0  0  0  0  0  0  0
   -5.9532    7.2099   -0.5165 H   0  0  0  0  0  0  0  0  0  0  0  0
   -6.5784    8.8939   -0.5165 H   0  0  0  0  0  0  0  0  0  0  0  0
  1  2  1  0
  2  3  1  0
  3  4  1  0
  4  5  1  0
  5  6  1  0
  6  7  1  0
  7  8  1  0
  7  9  1  0
  2 10  1  0
 10 11  1  0
 11 12  1  0
 12 13  1  0
 13 14  1  6
 13 15  1  0
 15 16  1  0
 16 17  1  0
 17 18  2  0
 18 19  1  0
 19 20  1  0
 20 21  1  0
 21 22  1  0
 22 23  1  0
 22 24  1  0
 24 25  1  0
 24 26  1  0
 19 27  1  0
 27 28  1  1
 27 29  1  0
 29 30  1  0
 30 31  1  0
 31 32  1  1
  7  5  1  0
 31 10  1  0
 31 13  1  0
 27 15  1  0
 24 18  1  0
  1 33  1  0
  1 34  1  0
  1 35  1  0
  2 36  1  6
  3 37  1  0
  3 38  1  0
  4 39  1  0
  4 40  1  0
  5 41  1  1
  8 42  1  0
  8 43  1  0
  8 44  1  0
  9 45  1  0
  9 46  1  0
  9 47  1  0
 10 48  1  6
 11 49  1  0
 11 50  1  0
 12 51  1  0
 12 52  1  0
 14 53  1  0
 14 54  1  0
 14 55  1  0
 15 56  1  1
 16 57  1  0
 16 58  1  0
 17 59  1  0
 19 60  1  6
 20 61  1  0
 20 62  1  0
 21 63  1  0
 21 64  1  0
 22 65  1  6
 23 66  1  0
 25 67  1  0
 25 68  1  0
 25 69  1  0
 26 70  1  0
 26 71  1  0
 26 72  1  0
 28 73  1  0
 28 74  1  0
 28 75  1  0
 29 76  1  0
 29 77  1  0
 30 78  1  0
 30 79  1  0
 32 80  1  0
 32 81  1  0
 32 82  1  0
M  END
>  <meeko>  (8) 
{"is_sidechain": [false], "intermolecular_energy": 2.731, "internal_energy": -0.839}

$$$$
EPH_relaxed_0001_pdb2pqr_Repair_386_r2_0001_out
     RDKit          3D

 82 86  0  0  0  0  0  0  0  0999 V2000
    2.6940   19.0380   -1.3000 C   0  0  0  0  0  0  0  0  0  0  0  0
    2.3250   17.9660   -2.3290 C   0  0  2  0  0  0  0  0  0  0  0  0
    0.8640   18.0950   -2.8040 C   0  0  0  0  0  0  0  0  0  0  0  0
    0.1660   19.3650   -2.3080 C   0  0  0  0  0  0  0  0  0  0  0  0
   -1.0950   19.0480   -1.5620 C   0  0  2  0  0  0  0  0  0  0  0  0
   -1.8640   20.1940   -1.1730 O   0  0  0  0  0  0  0  0  0  0  0  0
   -1.3160   19.4070   -0.1040 C   0  0  0  0  0  0  0  0  0  0  0  0
   -0.2650   20.1120    0.6940 C   0  0  0  0  0  0  0  0  0  0  0  0
   -2.3450   18.6440    0.6720 C   0  0  0  0  0  0  0  0  0  0  0  0
    2.5610   16.5800   -1.7420 C   0  0  1  0  0  0  0  0  0  0  0  0
    3.2860   16.6270   -0.3710 C   0  0  0  0  0  0  0  0  0  0  0  0
    2.7140   15.4620    0.4780 C   0  0  0  0  0  0  0  0  0  0  0  0
    1.9330   14.5900   -0.5330 C   0  0  1  0  0  0  0  0  0  0  0  0
    3.0210   13.7140   -1.2310 C   0  0  0  0  0  0  0  0  0  0  0  0
    0.7790   13.7150    0.0560 C   0  0  2  0  0  0  0  0  0  0  0  0
    1.2220   12.6500    1.0740 C   0  0  0  0  0  0  0  0  0  0  0  0
    1.5580   11.3160    0.4960 C   0  0  0  0  0  0  0  0  0  0  0  0
    1.2390   10.8970   -0.7430 C   0  0  0  0  0  0  0  0  0  0  0  0
    0.3810   11.7660   -1.6710 C   0  0  1  0  0  0  0  0  0  0  0  0
   -0.7260   10.8940   -2.3200 C   0  0  0  0  0  0  0  0  0  0  0  0
   -0.1630    9.6650   -3.0270 C   0  0  0  0  0  0  0  0  0  0  0  0
    0.6350    8.7970   -2.0590 C   0  0  2  0  0  0  0  0  0  0  0  0
   -0.2610    8.2440   -1.0890 O   0  0  0  0  0  0  0  0  0  0  0  0
    1.7740    9.5710   -1.3370 C   0  0  0  0  0  0  0  0  0  0  0  0
    2.8960    9.9090   -2.3490 C   0  0  0  0  0  0  0  0  0  0  0  0
    2.4080    8.6190   -0.2870 C   0  0  0  0  0  0  0  0  0  0  0  0
   -0.1920   13.1050   -1.0340 C   0  0  1  0  0  0  0  0  0  0  0  0
   -1.5440   12.8150   -0.3130 C   0  0  0  0  0  0  0  0  0  0  0  0
   -0.5150   14.1270   -2.1880 C   0  0  0  0  0  0  0  0  0  0  0  0
    0.6350   15.0450   -2.6430 C   0  0  0  0  0  0  0  0  0  0  0  0
    1.3130   15.7120   -1.4430 C   0  0  2  0  0  0  0  0  0  0  0  0
    0.2490   16.6170   -0.7340 C   0  0  0  0  0  0  0  0  0  0  0  0
    2.5555   18.6357   -0.2856 H   0  0  0  0  0  0  0  0  0  0  0  0
    3.7450   19.3319   -1.4375 H   0  0  0  0  0  0  0  0  0  0  0  0
    2.0466   19.9166   -1.4375 H   0  0  0  0  0  0  0  0  0  0  0  0
    2.9714   18.1135   -3.2067 H   0  0  0  0  0  0  0  0  0  0  0  0
    0.8555   18.1009   -3.9040 H   0  0  0  0  0  0  0  0  0  0  0  0
    0.3127   17.2403   -2.3850 H   0  0  0  0  0  0  0  0  0  0  0  0
    0.8489   19.9093   -1.6391 H   0  0  0  0  0  0  0  0  0  0  0  0
   -0.0975   19.9763   -3.1837 H   0  0  0  0  0  0  0  0  0  0  0  0
   -1.2153   18.1058   -2.1167 H   0  0  0  0  0  0  0  0  0  0  0  0
   -0.4668   19.9766    1.7668 H   0  0  0  0  0  0  0  0  0  0  0  0
    0.7226   19.6930    0.4509 H   0  0  0  0  0  0  0  0  0  0  0  0
   -0.2781   21.1847    0.4509 H   0  0  0  0  0  0  0  0  0  0  0  0
   -2.1653   18.7773    1.7490 H   0  0  0  0  0  0  0  0  0  0  0  0
   -3.3477   19.0186    0.4185 H   0  0  0  0  0  0  0  0  0  0  0  0
   -2.2778   17.5757    0.4185 H   0  0  0  0  0  0  0  0  0  0  0  0
    3.1442   16.1310   -2.5595 H   0  0  0  0  0  0  0  0  0  0  0  0
    4.3694   16.4974   -0.5108 H   0  0  0  0  0  0  0  0  0  0  0  0
    3.1259   17.5945    0.1274 H   0  0  0  0  0  0  0  0  0  0  0  0
    3.5268   14.8844    0.9426 H   0  0  0  0  0  0  0  0  0  0  0  0
    2.0771   15.8188    1.3008 H   0  0  0  0  0  0  0  0  0  0  0  0
    3.6376   13.2176   -0.4672 H   0  0  0  0  0  0  0  0  0  0  0  0
    2.5327   12.9541   -1.8588 H   0  0  0  0  0  0  0  0  0  0  0  0
    3.6592   14.3532   -1.8588 H   0  0  0  0  0  0  0  0  0  0  0  0
    0.1943   14.4498    0.6289 H   0  0  0  0  0  0  0  0  0  0  0  0
    2.1134   13.0286    1.5957 H   0  0  0  0  0  0  0  0  0  0  0  0
    0.3598   12.4857    1.7370 H   0  0  0  0  0  0  0  0  0  0  0  0
    2.1136   10.6154    1.1367 H   0  0  0  0  0  0  0  0  0  0  0  0
    1.0615   12.1446   -2.4479 H   0  0  0  0  0  0  0  0  0  0  0  0
   -1.4195   10.5616   -1.5335 H   0  0  0  0  0  0  0  0  0  0  0  0
   -1.2360   11.5096   -3.0756 H   0  0  0  0  0  0  0  0  0  0  0  0
   -0.9945    9.0741   -3.4388 H   0  0  0  0  0  0  0  0  0  0  0  0
    0.5070    9.9996   -3.8327 H   0  0  0  0  0  0  0  0  0  0  0  0
    1.1195    8.0053   -2.6493 H   0  0  0  0  0  0  0  0  0  0  0  0
    0.2770    7.8240   -0.3970 H   0  0  0  0  0  0  0  0  0  0  0  0
    3.8108   10.1846   -1.8038 H   0  0  0  0  0  0  0  0  0  0  0  0
    3.0963    9.0313   -2.9811 H   0  0  0  0  0  0  0  0  0  0  0  0
    2.5781   10.7513   -2.9811 H   0  0  0  0  0  0  0  0  0  0  0  0
    2.1690    8.9779    0.7249 H   0  0  0  0  0  0  0  0  0  0  0  0
    2.0046    7.6045   -0.4210 H   0  0  0  0  0  0  0  0  0  0  0  0
    3.4996    8.6002   -0.4210 H   0  0  0  0  0  0  0  0  0  0  0  0
   -1.3931   12.8474    0.7761 H   0  0  0  0  0  0  0  0  0  0  0  0
   -2.2847   13.5747   -0.6033 H   0  0  0  0  0  0  0  0  0  0  0  0
   -1.9079   11.8184   -0.6033 H   0  0  0  0  0  0  0  0  0  0  0  0
   -0.8449   13.5478   -3.0631 H   0  0  0  0  0  0  0  0  0  0  0  0
   -1.2755   14.8030   -1.7701 H   0  0  0  0  0  0  0  0  0  0  0  0
    1.3787   14.4461   -3.1891 H   0  0  0  0  0  0  0  0  0  0  0  0
    0.2203   15.8303   -3.2921 H   0  0  0  0  0  0  0  0  0  0  0  0
    0.3575   16.5247    0.3567 H   0  0  0  0  0  0  0  0  0  0  0  0
    0.4031   17.6650   -1.0304 H   0  0  0  0  0  0  0  0  0  0  0  0
   -0.7607   16.2968   -1.0304 H   0  0  0  0  0  0  0  0  0  0  0  0
  1  2  1  0
  2  3  1  0
  3  4  1  0
  4  5  1  0
  5  6  1  0
  6  7  1  0
  7  8  1  0
  7  9  1  0
  2 10  1  0
 10 11  1  0
 11 12  1  0
 12 13  1  0
 13 14  1  6
 13 15  1  0
 15 16  1  0
 16 17  1  0
 17 18  2  0
 18 19  1  0
 19 20  1  0
 20 21  1  0
 21 22  1  0
 22 23  1  0
 22 24  1  0
 24 25  1  0
 24 26  1  0
 19 27  1  0
 27 28  1  1
 27 29  1  0
 29 30  1  0
 30 31  1  0
 31 32  1  1
  7  5  1  0
 31 10  1  0
 31 13  1  0
 27 15  1  0
 24 18  1  0
  1 33  1  0
  1 34  1  0
  1 35  1  0
  2 36  1  6
  3 37  1  0
  3 38  1  0
  4 39  1  0
  4 40  1  0
  5 41  1  1
  8 42  1  0
  8 43  1  0
  8 44  1  0
  9 45  1  0
  9 46  1  0
  9 47  1  0
 10 48  1  6
 11 49  1  0
 11 50  1  0
 12 51  1  0
 12 52  1  0
 14 53  1  0
 14 54  1  0
 14 55  1  0
 15 56  1  1
 16 57  1  0
 16 58  1  0
 17 59  1  0
 19 60  1  6
 20 61  1  0
 20 62  1  0
 21 63  1  0
 21 64  1  0
 22 65  1  6
 23 66  1  0
 25 67  1  0
 25 68  1  0
 25 69  1  0
 26 70  1  0
 26 71  1  0
 26 72  1  0
 28 73  1  0
 28 74  1  0
 28 75  1  0
 29 76  1  0
 29 77  1  0
 30 78  1  0
 30 79  1  0
 32 80  1  0
 32 81  1  0
 32 82  1  0
M  END
>  <meeko>  (9) 
{"is_sidechain": [false], "intermolecular_energy": 2.731, "internal_energy": -0.839}

$$$$
EPH_relaxed_0001_pdb2pqr_Repair_386_r2_0001_out
     RDKit          3D

 82 86  0  0  0  0  0  0  0  0999 V2000
   -0.8860   16.3600   -5.8500 C   0  0  0  0  0  0  0  0  0  0  0  0
    0.2080   15.6640   -6.6640 C   0  0  2  0  0  0  0  0  0  0  0  0
   -0.1920   15.4880   -8.1430 C   0  0  0  0  0  0  0  0  0  0  0  0
    0.4620   16.5050   -9.0820 C   0  0  0  0  0  0  0  0  0  0  0  0
    1.8650   16.1120   -9.4340 C   0  0  2  0  0  0  0  0  0  0  0  0
    2.3520   16.6690  -10.6620 O   0  0  0  0  0  0  0  0  0  0  0  0
    2.2150   15.2400  -10.6250 C   0  0  0  0  0  0  0  0  0  0  0  0
    1.1570   14.7060  -11.5400 C   0  0  0  0  0  0  0  0  0  0  0  0
    3.5220   14.5090  -10.6170 C   0  0  0  0  0  0  0  0  0  0  0  0
    0.5310   14.3080   -6.0470 C   0  0  1  0  0  0  0  0  0  0  0  0
    1.7820   13.6460   -6.6820 C   0  0  0  0  0  0  0  0  0  0  0  0
    2.5050   12.8750   -5.5480 C   0  0  0  0  0  0  0  0  0  0  0  0
    1.4840   12.8410   -4.3870 C   0  0  1  0  0  0  0  0  0  0  0  0
    0.5160   11.6680   -4.7380 C   0  0  0  0  0  0  0  0  0  0  0  0
    2.0780   12.6890   -2.9490 C   0  0  2  0  0  0  0  0  0  0  0  0
    2.8450   11.3800   -2.6950 C   0  0  0  0  0  0  0  0  0  0  0  0
    2.0230   10.2500   -2.1710 C   0  0  0  0  0  0  0  0  0  0  0  0
    0.7880   10.3580   -1.6470 C   0  0  0  0  0  0  0  0  0  0  0  0
    0.1340   11.7320   -1.4500 C   0  0  1  0  0  0  0  0  0  0  0  0
   -0.4900   11.8100   -0.0320 C   0  0  0  0  0  0  0  0  0  0  0  0
   -1.4520   10.6600    0.2490 C   0  0  0  0  0  0  0  0  0  0  0  0
   -0.7490    9.3130    0.1010 C   0  0  2  0  0  0  0  0  0  0  0  0
    0.2320    9.1890    1.1340 O   0  0  0  0  0  0  0  0  0  0  0  0
   -0.0750    9.1230   -1.2870 C   0  0  0  0  0  0  0  0  0  0  0  0
   -1.1620    8.9560   -2.3760 C   0  0  0  0  0  0  0  0  0  0  0  0
    0.7160    7.7880   -1.2540 C   0  0  0  0  0  0  0  0  0  0  0  0
    1.0460   12.9890   -1.7870 C   0  0  1  0  0  0  0  0  0  0  0  0
    1.8880   13.3850   -0.5350 C   0  0  0  0  0  0  0  0  0  0  0  0
    0.1230   14.2230   -2.1100 C   0  0  0  0  0  0  0  0  0  0  0  0
   -0.3330   14.3850   -3.5720 C   0  0  0  0  0  0  0  0  0  0  0  0
    0.8550   14.2750   -4.5320 C   0  0  2  0  0  0  0  0  0  0  0  0
    1.8350   15.4560   -4.2180 C   0  0  0  0  0  0  0  0  0  0  0  0
   -0.6828   16.2307   -4.7767 H   0  0  0  0  0  0  0  0  0  0  0  0
   -0.8985   17.4325   -6.0942 H   0  0  0  0  0  0  0  0  0  0  0  0
   -1.8627   15.9169   -6.0942 H   0  0  0  0  0  0  0  0  0  0  0  0
    1.1002   16.3068   -6.6376 H   0  0  0  0  0  0  0  0  0  0  0  0
    0.1029   14.4783   -8.4648 H   0  0  0  0  0  0  0  0  0  0  0  0
   -1.2788   15.6468   -8.2034 H   0  0  0  0  0  0  0  0  0  0  0  0
   -0.1321   16.5711  -10.0054 H   0  0  0  0  0  0  0  0  0  0  0  0
    0.4970   17.4756   -8.5656 H   0  0  0  0  0  0  0  0  0  0  0  0
    2.1413   16.0546   -8.3708 H   0  0  0  0  0  0  0  0  0  0  0  0
    0.3321   14.2897  -10.9432 H   0  0  0  0  0  0  0  0  0  0  0  0
    0.7761   15.5198  -12.1745 H   0  0  0  0  0  0  0  0  0  0  0  0
    1.5855   13.9162  -12.1745 H   0  0  0  0  0  0  0  0  0  0  0  0
    3.8372   14.3327   -9.5780 H   0  0  0  0  0  0  0  0  0  0  0  0
    3.4060   13.5448  -11.1336 H   0  0  0  0  0  0  0  0  0  0  0  0
    4.2828   15.1125  -11.1336 H   0  0  0  0  0  0  0  0  0  0  0  0
   -0.4181   13.7866   -6.2402 H   0  0  0  0  0  0  0  0  0  0  0  0
    1.4792   12.9511   -7.4791 H   0  0  0  0  0  0  0  0  0  0  0  0
    2.4440   14.4017   -7.1298 H   0  0  0  0  0  0  0  0  0  0  0  0
    2.7584   11.8549   -5.8723 H   0  0  0  0  0  0  0  0  0  0  0  0
    3.4521   13.3527   -5.2568 H   0  0  0  0  0  0  0  0  0  0  0  0
    0.1402   11.2126   -3.8099 H   0  0  0  0  0  0  0  0  0  0  0  0
   -0.3299   12.0540   -5.3257 H   0  0  0  0  0  0  0  0  0  0  0  0
    1.0555   10.9107   -5.3257 H   0  0  0  0  0  0  0  0  0  0  0  0
    2.8334   13.4881   -2.9198 H   0  0  0  0  0  0  0  0  0  0  0  0
    3.2953   11.0600   -3.6462 H   0  0  0  0  0  0  0  0  0  0  0  0
    3.5834   11.6074   -1.9120 H   0  0  0  0  0  0  0  0  0  0  0  0
    2.4639    9.2433   -2.2169 H   0  0  0  0  0  0  0  0  0  0  0  0
   -0.6580   11.8038   -2.2100 H   0  0  0  0  0  0  0  0  0  0  0  0
    0.3201   11.7815    0.7116 H   0  0  0  0  0  0  0  0  0  0  0  0
   -1.0634   12.7468    0.0289 H   0  0  0  0  0  0  0  0  0  0  0  0
   -1.8365   10.7547    1.2753 H   0  0  0  0  0  0  0  0  0  0  0  0
   -2.2775   10.7071   -0.4765 H   0  0  0  0  0  0  0  0  0  0  0  0
   -1.5161    8.5292    0.1865 H   0  0  0  0  0  0  0  0  0  0  0  0
    1.1070    9.2970    0.7240 H   0  0  0  0  0  0  0  0  0  0  0  0
   -2.1408    8.8056   -1.8971 H   0  0  0  0  0  0  0  0  0  0  0  0
   -1.1953    9.8596   -3.0025 H   0  0  0  0  0  0  0  0  0  0  0  0
   -0.9225    8.0841   -3.0025 H   0  0  0  0  0  0  0  0  0  0  0  0
    0.8916    7.4916   -0.2093 H   0  0  0  0  0  0  0  0  0  0  0  0
    0.1358    7.0053   -1.7646 H   0  0  0  0  0  0  0  0  0  0  0  0
    1.6812    7.9210   -1.7646 H   0  0  0  0  0  0  0  0  0  0  0  0
    1.3327   13.1238    0.3779 H   0  0  0  0  0  0  0  0  0  0  0  0
    2.8448   12.8425   -0.5500 H   0  0  0  0  0  0  0  0  0  0  0  0
    2.0803   14.4680   -0.5500 H   0  0  0  0  0  0  0  0  0  0  0  0
   -0.7797   14.1353   -1.4876 H   0  0  0  0  0  0  0  0  0  0  0  0
    0.7422   15.1080   -1.9018 H   0  0  0  0  0  0  0  0  0  0  0  0
   -1.0627   13.5973   -3.8107 H   0  0  0  0  0  0  0  0  0  0  0  0
   -0.7879   15.3796   -3.6894 H   0  0  0  0  0  0  0  0  0  0  0  0
    1.9316   15.5725   -3.1285 H   0  0  0  0  0  0  0  0  0  0  0  0
    2.8219   15.2389   -4.6525 H   0  0  0  0  0  0  0  0  0  0  0  0
    1.4396   16.3860   -4.6525 H   0  0  0  0  0  0  0  0  0  0  0  0
  1  2  1  0
  2  3  1  0
  3  4  1  0
  4  5  1  0
  5  6  1  0
  6  7  1  0
  7  8  1  0
  7  9  1  0
  2 10  1  0
 10 11  1  0
 11 12  1  0
 12 13  1  0
 13 14  1  6
 13 15  1  0
 15 16  1  0
 16 17  1  0
 17 18  2  0
 18 19  1  0
 19 20  1  0
 20 21  1  0
 21 22  1  0
 22 23  1  0
 22 24  1  0
 24 25  1  0
 24 26  1  0
 19 27  1  0
 27 28  1  1
 27 29  1  0
 29 30  1  0
 30 31  1  0
 31 32  1  1
  7  5  1  0
 31 10  1  0
 31 13  1  0
 27 15  1  0
 24 18  1  0
  1 33  1  0
  1 34  1  0
  1 35  1  0
  2 36  1  6
  3 37  1  0
  3 38  1  0
  4 39  1  0
  4 40  1  0
  5 41  1  1
  8 42  1  0
  8 43  1  0
  8 44  1  0
  9 45  1  0
  9 46  1  0
  9 47  1  0
 10 48  1  1
 11 49  1  0
 11 50  1  0
 12 51  1  0
 12 52  1  0
 14 53  1  0
 14 54  1  0
 14 55  1  0
 15 56  1  6
 16 57  1  0
 16 58  1  0
 17 59  1  0
 19 60  1  6
 20 61  1  0
 20 62  1  0
 21 63  1  0
 21 64  1  0
 22 65  1  1
 23 66  1  0
 25 67  1  0
 25 68  1  0
 25 69  1  0
 26 70  1  0
 26 71  1  0
 26 72  1  0
 28 73  1  0
 28 74  1  0
 28 75  1  0
 29 76  1  0
 29 77  1  0
 30 78  1  0
 30 79  1  0
 32 80  1  0
 32 81  1  0
 32 82  1  0
M  END
>  <meeko>  (10) 
{"is_sidechain": [false], "intermolecular_energy": 2.731, "internal_energy": -0.839}

$$$$
EPH_relaxed_0001_pdb2pqr_Repair_386_r2_0001_out
     RDKit          3D

 82 86  0  0  0  0  0  0  0  0999 V2000
   -4.2570    7.3280   -3.3930 C   0  0  0  0  0  0  0  0  0  0  0  0
   -3.8190    7.2420   -1.9280 C   0  0  2  0  0  0  0  0  0  0  0  0
   -4.9690    6.7950   -1.0030 C   0  0  0  0  0  0  0  0  0  0  0  0
   -6.1830    6.2420   -1.7540 C   0  0  0  0  0  0  0  0  0  0  0  0
   -7.4400    6.9710   -1.3900 C   0  0  2  0  0  0  0  0  0  0  0  0
   -8.5520    6.1250   -1.0710 O   0  0  0  0  0  0  0  0  0  0  0  0
   -8.6970    6.9490   -2.2390 C   0  0  0  0  0  0  0  0  0  0  0  0
   -8.7580    6.1800   -3.5220 C   0  0  0  0  0  0  0  0  0  0  0  0
   -9.6900    8.0560   -2.0770 C   0  0  0  0  0  0  0  0  0  0  0  0
   -3.2750    8.5900   -1.4680 C   0  0  1  0  0  0  0  0  0  0  0  0
   -3.9010    9.0620   -0.1290 C   0  0  0  0  0  0  0  0  0  0  0  0
   -2.7880    9.8170    0.6430 C   0  0  0  0  0  0  0  0  0  0  0  0
   -1.6720   10.0440   -0.4040 C   0  0  1  0  0  0  0  0  0  0  0  0
   -2.1330   11.2940   -1.2160 C   0  0  0  0  0  0  0  0  0  0  0  0
   -0.2240   10.2210    0.1580 C   0  0  2  0  0  0  0  0  0  0  0  0
   -0.0220   11.4480    1.0650 C   0  0  0  0  0  0  0  0  0  0  0  0
    0.3990   12.6970    0.3640 C   0  0  0  0  0  0  0  0  0  0  0  0
    0.8810   12.7650   -0.8910 C   0  0  0  0  0  0  0  0  0  0  0  0
    1.1360   11.4910   -1.7070 C   0  0  1  0  0  0  0  0  0  0  0  0
    2.5310   11.5780   -2.3790 C   0  0  0  0  0  0  0  0  0  0  0  0
    2.7030   12.8470   -3.2090 C   0  0  0  0  0  0  0  0  0  0  0  0
    2.4990   14.0920   -2.3500 C   0  0  2  0  0  0  0  0  0  0  0  0
    3.5600   14.1710   -1.3940 O   0  0  0  0  0  0  0  0  0  0  0  0
    1.1300   14.1110   -1.6140 C   0  0  0  0  0  0  0  0  0  0  0  0
   -0.0090   14.3300   -2.6410 C   0  0  0  0  0  0  0  0  0  0  0  0
    1.1100   15.3470   -0.6750 C   0  0  0  0  0  0  0  0  0  0  0  0
    0.9130   10.1190   -0.9370 C   0  0  1  0  0  0  0  0  0  0  0  0
    2.2180    9.7120   -0.1870 C   0  0  0  0  0  0  0  0  0  0  0  0
    0.6310    8.9800   -1.9880 C   0  0  0  0  0  0  0  0  0  0  0  0
   -0.8350    8.7750   -2.4130 C   0  0  0  0  0  0  0  0  0  0  0  0
   -1.7530    8.6850   -1.1900 C   0  0  2  0  0  0  0  0  0  0  0  0
   -1.3290    7.4230   -0.3650 C   0  0  0  0  0  0  0  0  0  0  0  0
   -5.3353    7.5397   -3.4415 H   0  0  0  0  0  0  0  0  0  0  0  0
   -3.7021    8.1343   -3.8949 H   0  0  0  0  0  0  0  0  0  0  0  0
   -4.0482    6.3717   -3.8949 H   0  0  0  0  0  0  0  0  0  0  0  0
   -3.0283    6.4800   -1.8635 H   0  0  0  0  0  0  0  0  0  0  0  0
   -4.5896    6.0110   -0.3311 H   0  0  0  0  0  0  0  0  0  0  0  0
   -5.3080    7.6877   -0.4569 H   0  0  0  0  0  0  0  0  0  0  0  0
   -6.0109    6.3465   -2.8354 H   0  0  0  0  0  0  0  0  0  0  0  0
   -6.3066    5.1854   -1.4743 H   0  0  0  0  0  0  0  0  0  0  0  0
   -6.8609    7.7968   -0.9511 H   0  0  0  0  0  0  0  0  0  0  0  0
   -8.8432    5.1056   -3.3018 H   0  0  0  0  0  0  0  0  0  0  0  0
   -9.6331    6.5057   -4.1034 H   0  0  0  0  0  0  0  0  0  0  0  0
   -7.8425    6.3636   -4.1034 H   0  0  0  0  0  0  0  0  0  0  0  0
   -9.8584    8.2437   -1.0063 H   0  0  0  0  0  0  0  0  0  0  0  0
   -9.3023    8.9689   -2.5528 H   0  0  0  0  0  0  0  0  0  0  0  0
  -10.6395    7.7694   -2.5528 H   0  0  0  0  0  0  0  0  0  0  0  0
   -3.5369    9.2028   -2.3431 H   0  0  0  0  0  0  0  0  0  0  0  0
   -4.7498    9.7341   -0.3237 H   0  0  0  0  0  0  0  0  0  0  0  0
   -4.2770    8.2084    0.4541 H   0  0  0  0  0  0  0  0  0  0  0  0
   -3.1635   10.7778    1.0248 H   0  0  0  0  0  0  0  0  0  0  0  0
   -2.4311    9.2533    1.5176 H   0  0  0  0  0  0  0  0  0  0  0  0
   -2.4281   12.0941   -0.5212 H   0  0  0  0  0  0  0  0  0  0  0  0
   -1.3053   11.6453   -1.8496 H   0  0  0  0  0  0  0  0  0  0  0  0
   -2.9906   11.0238   -1.8496 H   0  0  0  0  0  0  0  0  0  0  0  0
   -0.1161    9.3438    0.8128 H   0  0  0  0  0  0  0  0  0  0  0  0
   -0.9731   11.6509    1.5791 H   0  0  0  0  0  0  0  0  0  0  0  0
    0.8013   11.1898    1.7472 H   0  0  0  0  0  0  0  0  0  0  0  0
    0.3076   13.6417    0.9201 H   0  0  0  0  0  0  0  0  0  0  0  0
    0.3520   11.4605   -2.4780 H   0  0  0  0  0  0  0  0  0  0  0  0
    3.3018   11.5627   -1.5944 H   0  0  0  0  0  0  0  0  0  0  0  0
    2.6281   10.7188   -3.0589 H   0  0  0  0  0  0  0  0  0  0  0  0
    3.7176   12.8648   -3.6336 H   0  0  0  0  0  0  0  0  0  0  0  0
    1.9505   12.8466   -4.0113 H   0  0  0  0  0  0  0  0  0  0  0  0
    2.5051   14.9619   -3.0232 H   0  0  0  0  0  0  0  0  0  0  0  0
    3.1810   13.9860   -0.5180 H   0  0  0  0  0  0  0  0  0  0  0  0
   -0.9537   14.5116   -2.1076 H   0  0  0  0  0  0  0  0  0  0  0  0
    0.2286   15.1989   -3.2723 H   0  0  0  0  0  0  0  0  0  0  0  0
   -0.1106   13.4349   -3.2723 H   0  0  0  0  0  0  0  0  0  0  0  0
    1.1154   15.0117    0.3726 H   0  0  0  0  0  0  0  0  0  0  0  0
    1.9982   15.9671   -0.8661 H   0  0  0  0  0  0  0  0  0  0  0  0
    0.2022   15.9380   -0.8661 H   0  0  0  0  0  0  0  0  0  0  0  0
    2.0487    9.7648    0.8986 H   0  0  0  0  0  0  0  0  0  0  0  0
    2.4956    8.6846   -0.4652 H   0  0  0  0  0  0  0  0  0  0  0  0
    3.0304   10.3994   -0.4652 H   0  0  0  0  0  0  0  0  0  0  0  0
    1.2107    9.2118   -2.8936 H   0  0  0  0  0  0  0  0  0  0  0  0
    0.9179    8.0455   -1.4837 H   0  0  0  0  0  0  0  0  0  0  0  0
   -1.1504    9.6234   -3.0380 H   0  0  0  0  0  0  0  0  0  0  0  0
   -0.9083    7.8332   -2.9766 H   0  0  0  0  0  0  0  0  0  0  0  0
   -1.4037    7.6454    0.7097 H   0  0  0  0  0  0  0  0  0  0  0  0
   -1.9941    6.5826   -0.6126 H   0  0  0  0  0  0  0  0  0  0  0  0
   -0.2914    7.1547   -0.6126 H   0  0  0  0  0  0  0  0  0  0  0  0
  1  2  1  0
  2  3  1  0
  3  4  1  0
  4  5  1  0
  5  6  1  0
  6  7  1  0
  7  8  1  0
  7  9  1  0
  2 10  1  0
 10 11  1  0
 11 12  1  0
 12 13  1  0
 13 14  1  6
 13 15  1  0
 15 16  1  0
 16 17  1  0
 17 18  2  0
 18 19  1  0
 19 20  1  0
 20 21  1  0
 21 22  1  0
 22 23  1  0
 22 24  1  0
 24 25  1  0
 24 26  1  0
 19 27  1  0
 27 28  1  1
 27 29  1  0
 29 30  1  0
 30 31  1  0
 31 32  1  1
  7  5  1  0
 31 10  1  0
 31 13  1  0
 27 15  1  0
 24 18  1  0
  1 33  1  0
  1 34  1  0
  1 35  1  0
  2 36  1  6
  3 37  1  0
  3 38  1  0
  4 39  1  0
  4 40  1  0
  5 41  1  1
  8 42  1  0
  8 43  1  0
  8 44  1  0
  9 45  1  0
  9 46  1  0
  9 47  1  0
 10 48  1  6
 11 49  1  0
 11 50  1  0
 12 51  1  0
 12 52  1  0
 14 53  1  0
 14 54  1  0
 14 55  1  0
 15 56  1  1
 16 57  1  0
 16 58  1  0
 17 59  1  0
 19 60  1  6
 20 61  1  0
 20 62  1  0
 21 63  1  0
 21 64  1  0
 22 65  1  6
 23 66  1  0
 25 67  1  0
 25 68  1  0
 25 69  1  0
 26 70  1  0
 26 71  1  0
 26 72  1  0
 28 73  1  0
 28 74  1  0
 28 75  1  0
 29 76  1  0
 29 77  1  0
 30 78  1  0
 30 79  1  0
 32 80  1  0
 32 81  1  0
 32 82  1  0
M  END
>  <meeko>  (11) 
{"is_sidechain": [false], "intermolecular_energy": 2.731, "internal_energy": -0.839}

$$$$
EPH_relaxed_0001_pdb2pqr_Repair_386_r2_0001_out
     RDKit          3D

 82 86  0  0  0  0  0  0  0  0999 V2000
   -2.3020    7.8020   -2.2090 C   0  0  0  0  0  0  0  0  0  0  0  0
   -2.2670    8.4100   -0.8030 C   0  0  2  0  0  0  0  0  0  0  0  0
   -3.6540    8.3920   -0.1290 C   0  0  0  0  0  0  0  0  0  0  0  0
   -4.8150    8.6140   -1.1020 C   0  0  0  0  0  0  0  0  0  0  0  0
   -5.9190    7.6240   -0.8820 C   0  0  2  0  0  0  0  0  0  0  0  0
   -5.5010    6.2520   -0.8770 O   0  0  0  0  0  0  0  0  0  0  0  0
   -6.3850    6.6420   -1.9400 C   0  0  0  0  0  0  0  0  0  0  0  0
   -5.7570    6.6020   -3.2980 C   0  0  0  0  0  0  0  0  0  0  0  0
   -7.7600    6.0630   -1.8230 C   0  0  0  0  0  0  0  0  0  0  0  0
   -1.7370    9.8370   -0.8670 C   0  0  1  0  0  0  0  0  0  0  0  0
   -1.3080   10.3780    0.5230 C   0  0  0  0  0  0  0  0  0  0  0  0
   -0.0830   11.2980    0.2860 C   0  0  0  0  0  0  0  0  0  0  0  0
   -0.0520   11.5200   -1.2440 C   0  0  1  0  0  0  0  0  0  0  0  0
   -1.1040   12.6430   -1.5080 C   0  0  0  0  0  0  0  0  0  0  0  0
    1.3390   11.8760   -1.8630 C   0  0  2  0  0  0  0  0  0  0  0  0
    1.9550   13.1970   -1.3670 C   0  0  0  0  0  0  0  0  0  0  0  0
    1.6030   14.4050   -2.1700 C   0  0  0  0  0  0  0  0  0  0  0  0
    1.0620   14.3950   -3.4020 C   0  0  0  0  0  0  0  0  0  0  0  0
    0.8380   13.0770   -4.1540 C   0  0  1  0  0  0  0  0  0  0  0  0
    1.3450   13.2200   -5.6130 C   0  0  0  0  0  0  0  0  0  0  0  0
    0.7250   14.4140   -6.3330 C   0  0  0  0  0  0  0  0  0  0  0  0
    1.0180   15.7130   -5.5860 C   0  0  2  0  0  0  0  0  0  0  0  0
    2.4230   15.9750   -5.6510 O   0  0  0  0  0  0  0  0  0  0  0  0
    0.5600   15.6830   -4.1010 C   0  0  0  0  0  0  0  0  0  0  0  0
   -0.9870   15.7020   -4.0330 C   0  0  0  0  0  0  0  0  0  0  0  0
    1.0410   16.9960   -3.4270 C   0  0  0  0  0  0  0  0  0  0  0  0
    1.3940   11.7690   -3.4410 C   0  0  1  0  0  0  0  0  0  0  0  0
    2.8900   11.5510   -3.8210 C   0  0  0  0  0  0  0  0  0  0  0  0
    0.6110   10.5160   -3.9830 C   0  0  0  0  0  0  0  0  0  0  0  0
   -0.6950   10.1440   -3.2540 C   0  0  0  0  0  0  0  0  0  0  0  0
   -0.4810   10.0910   -1.7380 C   0  0  2  0  0  0  0  0  0  0  0  0
    0.5560    8.9550   -1.4410 C   0  0  0  0  0  0  0  0  0  0  0  0
   -2.3651    6.7064   -2.1332 H   0  0  0  0  0  0  0  0  0  0  0  0
   -3.1797    8.1832   -2.7516 H   0  0  0  0  0  0  0  0  0  0  0  0
   -1.3864    8.0799   -2.7516 H   0  0  0  0  0  0  0  0  0  0  0  0
   -1.5942    7.7914   -0.1909 H   0  0  0  0  0  0  0  0  0  0  0  0
   -3.7908    7.4150    0.3575 H   0  0  0  0  0  0  0  0  0  0  0  0
   -3.6729    9.2252    0.5889 H   0  0  0  0  0  0  0  0  0  0  0  0
   -5.2125    9.6294   -0.9572 H   0  0  0  0  0  0  0  0  0  0  0  0
   -4.4348    8.4822   -2.1257 H   0  0  0  0  0  0  0  0  0  0  0  0
   -6.4639    8.3374   -0.2463 H   0  0  0  0  0  0  0  0  0  0  0  0
   -4.6641    6.5324   -3.1946 H   0  0  0  0  0  0  0  0  0  0  0  0
   -6.1298    5.7258   -3.8487 H   0  0  0  0  0  0  0  0  0  0  0  0
   -6.0156    7.5184   -3.8487 H   0  0  0  0  0  0  0  0  0  0  0  0
   -8.0222    5.9526   -0.7604 H   0  0  0  0  0  0  0  0  0  0  0  0
   -8.4828    6.7332   -2.3113 H   0  0  0  0  0  0  0  0  0  0  0  0
   -7.7857    5.0777   -2.3113 H   0  0  0  0  0  0  0  0  0  0  0  0
   -2.6101   10.3380   -1.3105 H   0  0  0  0  0  0  0  0  0  0  0  0
   -2.1300   10.9511    0.9766 H   0  0  0  0  0  0  0  0  0  0  0  0
   -1.0568    9.5541    1.2072 H   0  0  0  0  0  0  0  0  0  0  0  0
   -0.2077   12.2545    0.8147 H   0  0  0  0  0  0  0  0  0  0  0  0
    0.8507   10.8545    0.6621 H   0  0  0  0  0  0  0  0  0  0  0  0
   -1.4710   13.0347   -0.5478 H   0  0  0  0  0  0  0  0  0  0  0  0
   -0.6357   13.4568   -2.0811 H   0  0  0  0  0  0  0  0  0  0  0  0
   -1.9466   12.2287   -2.0811 H   0  0  0  0  0  0  0  0  0  0  0  0
    1.9841   11.0778   -1.4671 H   0  0  0  0  0  0  0  0  0  0  0  0
    1.6149   13.3642   -0.3344 H   0  0  0  0  0  0  0  0  0  0  0  0
    3.0448   13.0779   -1.4577 H   0  0  0  0  0  0  0  0  0  0  0  0
    1.8028   15.3868   -1.7161 H   0  0  0  0  0  0  0  0  0  0  0  0
   -0.2487   12.9068   -4.1515 H   0  0  0  0  0  0  0  0  0  0  0  0
    2.4375   13.3469   -5.5959 H   0  0  0  0  0  0  0  0  0  0  0  0
    1.0517   12.3114   -6.1592 H   0  0  0  0  0  0  0  0  0  0  0  0
    1.1440   14.4798   -7.3479 H   0  0  0  0  0  0  0  0  0  0  0  0
   -0.3649   14.2714   -6.3758 H   0  0  0  0  0  0  0  0  0  0  0  0
    0.4417   16.5120   -6.0754 H   0  0  0  0  0  0  0  0  0  0  0  0
    2.6010   16.4180   -6.4990 H   0  0  0  0  0  0  0  0  0  0  0  0
   -1.3077   15.7059   -2.9808 H   0  0  0  0  0  0  0  0  0  0  0  0
   -1.3650   16.6049   -4.5349 H   0  0  0  0  0  0  0  0  0  0  0  0
   -1.3871   14.8087   -4.5349 H   0  0  0  0  0  0  0  0  0  0  0  0
    0.9997   16.8833   -2.3336 H   0  0  0  0  0  0  0  0  0  0  0  0
    2.0754   17.2086   -3.7349 H   0  0  0  0  0  0  0  0  0  0  0  0
    0.3887   17.8265   -3.7349 H   0  0  0  0  0  0  0  0  0  0  0  0
    3.4921   11.4633   -2.9046 H   0  0  0  0  0  0  0  0  0  0  0  0
    2.9873   10.6292   -4.4133 H   0  0  0  0  0  0  0  0  0  0  0  0
    3.2463   12.4067   -4.4133 H   0  0  0  0  0  0  0  0  0  0  0  0
    0.3604   10.7102   -5.0363 H   0  0  0  0  0  0  0  0  0  0  0  0
    1.2852    9.6624   -3.8194 H   0  0  0  0  0  0  0  0  0  0  0  0
   -1.4622   10.8983   -3.4829 H   0  0  0  0  0  0  0  0  0  0  0  0
   -1.0175    9.1500   -3.5976 H   0  0  0  0  0  0  0  0  0  0  0  0
    0.6662    8.8343   -0.3532 H   0  0  0  0  0  0  0  0  0  0  0  0
    0.2017    8.0110   -1.8806 H   0  0  0  0  0  0  0  0  0  0  0  0
    1.5283    9.2220   -1.8806 H   0  0  0  0  0  0  0  0  0  0  0  0
  1  2  1  0
  2  3  1  0
  3  4  1  0
  4  5  1  0
  5  6  1  0
  6  7  1  0
  7  8  1  0
  7  9  1  0
  2 10  1  0
 10 11  1  0
 11 12  1  0
 12 13  1  0
 13 14  1  1
 13 15  1  0
 15 16  1  0
 16 17  1  0
 17 18  2  0
 18 19  1  0
 19 20  1  0
 20 21  1  0
 21 22  1  0
 22 23  1  0
 22 24  1  0
 24 25  1  0
 24 26  1  0
 19 27  1  0
 27 28  1  1
 27 29  1  0
 29 30  1  0
 30 31  1  0
 31 32  1  6
  7  5  1  0
 31 10  1  0
 31 13  1  0
 27 15  1  0
 24 18  1  0
  1 33  1  0
  1 34  1  0
  1 35  1  0
  2 36  1  1
  3 37  1  0
  3 38  1  0
  4 39  1  0
  4 40  1  0
  5 41  1  1
  8 42  1  0
  8 43  1  0
  8 44  1  0
  9 45  1  0
  9 46  1  0
  9 47  1  0
 10 48  1  6
 11 49  1  0
 11 50  1  0
 12 51  1  0
 12 52  1  0
 14 53  1  0
 14 54  1  0
 14 55  1  0
 15 56  1  1
 16 57  1  0
 16 58  1  0
 17 59  1  0
 19 60  1  6
 20 61  1  0
 20 62  1  0
 21 63  1  0
 21 64  1  0
 22 65  1  6
 23 66  1  0
 25 67  1  0
 25 68  1  0
 25 69  1  0
 26 70  1  0
 26 71  1  0
 26 72  1  0
 28 73  1  0
 28 74  1  0
 28 75  1  0
 29 76  1  0
 29 77  1  0
 30 78  1  0
 30 79  1  0
 32 80  1  0
 32 81  1  0
 32 82  1  0
M  END
>  <meeko>  (12) 
{"is_sidechain": [false], "intermolecular_energy": 2.731, "internal_energy": -0.839}

$$$$
EPH_relaxed_0001_pdb2pqr_Repair_386_r2_0001_out
     RDKit          3D

 82 86  0  0  0  0  0  0  0  0999 V2000
   -0.5490    9.3330   -2.0700 C   0  0  0  0  0  0  0  0  0  0  0  0
    0.6150   10.2040   -2.5510 C   0  0  2  0  0  0  0  0  0  0  0  0
    1.9460    9.4270   -2.5900 C   0  0  0  0  0  0  0  0  0  0  0  0
    2.8940    9.8840   -3.7020 C   0  0  0  0  0  0  0  0  0  0  0  0
    4.2420   10.2560   -3.1630 C   0  0  2  0  0  0  0  0  0  0  0  0
    4.5740   11.6450   -3.2880 O   0  0  0  0  0  0  0  0  0  0  0  0
    5.3900   10.7280   -4.0340 C   0  0  0  0  0  0  0  0  0  0  0  0
    5.2430   10.8520   -5.5190 C   0  0  0  0  0  0  0  0  0  0  0  0
    6.7870   10.5990   -3.5100 C   0  0  0  0  0  0  0  0  0  0  0  0
    0.7520   11.4290   -1.6550 C   0  0  1  0  0  0  0  0  0  0  0  0
    1.8490   11.2550   -0.5700 C   0  0  0  0  0  0  0  0  0  0  0  0
    2.5000   12.6470   -0.3660 C   0  0  0  0  0  0  0  0  0  0  0  0
    1.5480   13.6320   -1.0830 C   0  0  1  0  0  0  0  0  0  0  0  0
    0.3910   13.8850   -0.0670 C   0  0  0  0  0  0  0  0  0  0  0  0
    2.1850   14.9720   -1.5770 C   0  0  2  0  0  0  0  0  0  0  0  0
    2.7490   15.8750   -0.4670 C   0  0  0  0  0  0  0  0  0  0  0  0
    1.7880   16.8670    0.0990 C   0  0  0  0  0  0  0  0  0  0  0  0
    0.6140   17.2230   -0.4560 C   0  0  0  0  0  0  0  0  0  0  0  0
    0.1950   16.6810   -1.8280 C   0  0  1  0  0  0  0  0  0  0  0  0
   -0.3330   17.8460   -2.7060 C   0  0  0  0  0  0  0  0  0  0  0  0
   -1.4480   18.6330   -2.0240 C   0  0  0  0  0  0  0  0  0  0  0  0
   -0.9750   19.2050   -0.6900 C   0  0  2  0  0  0  0  0  0  0  0  0
    0.0280   20.1940   -0.9430 O   0  0  0  0  0  0  0  0  0  0  0  0
   -0.4120   18.1240    0.2740 C   0  0  0  0  0  0  0  0  0  0  0  0
   -1.5680   17.2290    0.7850 C   0  0  0  0  0  0  0  0  0  0  0  0
    0.1600   18.8500    1.5230 C   0  0  0  0  0  0  0  0  0  0  0  0
    1.2750   15.7910   -2.5810 C   0  0  1  0  0  0  0  0  0  0  0  0
    2.2330   16.7020   -3.4080 C   0  0  0  0  0  0  0  0  0  0  0  0
    0.5420   14.8610   -3.6180 C   0  0  0  0  0  0  0  0  0  0  0  0
    0.0420   13.4990   -3.0990 C   0  0  0  0  0  0  0  0  0  0  0  0
    1.1460   12.7660   -2.3320 C   0  0  2  0  0  0  0  0  0  0  0  0
    2.3150   12.4780   -3.3350 C   0  0  0  0  0  0  0  0  0  0  0  0
   -0.5669    9.3196   -0.9702 H   0  0  0  0  0  0  0  0  0  0  0  0
   -1.4962    9.7460   -2.4471 H   0  0  0  0  0  0  0  0  0  0  0  0
   -0.4200    8.3077   -2.4471 H   0  0  0  0  0  0  0  0  0  0  0  0
    0.3884   10.5196   -3.5801 H   0  0  0  0  0  0  0  0  0  0  0  0
    2.4544    9.5606   -1.6237 H   0  0  0  0  0  0  0  0  0  0  0  0
    1.6977    8.3746   -2.7921 H   0  0  0  0  0  0  0  0  0  0  0  0
    3.0135    9.0657   -4.4273 H   0  0  0  0  0  0  0  0  0  0  0  0
    2.4583   10.7738   -4.1799 H   0  0  0  0  0  0  0  0  0  0  0  0
    4.1745    9.4756   -2.3907 H   0  0  0  0  0  0  0  0  0  0  0  0
    4.4208   11.5455   -5.7494 H   0  0  0  0  0  0  0  0  0  0  0  0
    6.1792   11.2373   -5.9492 H   0  0  0  0  0  0  0  0  0  0  0  0
    5.0210    9.8643   -5.9492 H   0  0  0  0  0  0  0  0  0  0  0  0
    6.7677   10.6008   -2.4102 H   0  0  0  0  0  0  0  0  0  0  0  0
    7.2271    9.6564   -3.8675 H   0  0  0  0  0  0  0  0  0  0  0  0
    7.3923   11.4451   -3.8675 H   0  0  0  0  0  0  0  0  0  0  0  0
   -0.2765   11.4917   -1.2699 H   0  0  0  0  0  0  0  0  0  0  0  0
    1.3992   10.9055    0.3710 H   0  0  0  0  0  0  0  0  0  0  0  0
    2.5970   10.5104   -0.8801 H   0  0  0  0  0  0  0  0  0  0  0  0
    2.5736   12.8881    0.7047 H   0  0  0  0  0  0  0  0  0  0  0  0
    3.5239   12.6911   -0.7656 H   0  0  0  0  0  0  0  0  0  0  0  0
    0.7788   13.8002    0.9589 H   0  0  0  0  0  0  0  0  0  0  0  0
   -0.0188   14.8940   -0.2218 H   0  0  0  0  0  0  0  0  0  0  0  0
   -0.4026   13.1392   -0.2218 H   0  0  0  0  0  0  0  0  0  0  0  0
    3.0569   14.6214   -2.1487 H   0  0  0  0  0  0  0  0  0  0  0  0
    3.0935   15.2291    0.3541 H   0  0  0  0  0  0  0  0  0  0  0  0
    3.5535   16.4630   -0.9330 H   0  0  0  0  0  0  0  0  0  0  0  0
    2.0620   17.3478    1.0497 H   0  0  0  0  0  0  0  0  0  0  0  0
   -0.6146   15.9615   -1.6362 H   0  0  0  0  0  0  0  0  0  0  0  0
    0.5005   18.5305   -2.9222 H   0  0  0  0  0  0  0  0  0  0  0  0
   -0.7472   17.4093   -3.6267 H   0  0  0  0  0  0  0  0  0  0  0  0
   -1.7586   19.4594   -2.6802 H   0  0  0  0  0  0  0  0  0  0  0  0
   -2.2923   17.9537   -1.8351 H   0  0  0  0  0  0  0  0  0  0  0  0
   -1.8502   19.6456   -0.1901 H   0  0  0  0  0  0  0  0  0  0  0  0
    0.4880   19.9450   -1.7620 H   0  0  0  0  0  0  0  0  0  0  0  0
   -1.5711   17.2266    1.8850 H   0  0  0  0  0  0  0  0  0  0  0  0
   -2.5268   17.6225    0.4165 H   0  0  0  0  0  0  0  0  0  0  0  0
   -1.4271   16.2022    0.4165 H   0  0  0  0  0  0  0  0  0  0  0  0
   -0.2209   18.3665    2.4346 H   0  0  0  0  0  0  0  0  0  0  0  0
    1.2584   18.7929    1.5093 H   0  0  0  0  0  0  0  0  0  0  0  0
   -0.1525   19.9046    1.5093 H   0  0  0  0  0  0  0  0  0  0  0  0
    2.8568   17.2952   -2.7232 H   0  0  0  0  0  0  0  0  0  0  0  0
    2.8779   16.0759   -4.0421 H   0  0  0  0  0  0  0  0  0  0  0  0
    1.6401   17.3776   -4.0421 H   0  0  0  0  0  0  0  0  0  0  0  0
   -0.3301   15.4117   -4.0003 H   0  0  0  0  0  0  0  0  0  0  0  0
    1.3028   14.6186   -4.3746 H   0  0  0  0  0  0  0  0  0  0  0  0
   -0.8147   13.6619   -2.4286 H   0  0  0  0  0  0  0  0  0  0  0  0
   -0.2550   12.8829   -3.9605 H   0  0  0  0  0  0  0  0  0  0  0  0
    3.2331   12.2518   -2.7729 H   0  0  0  0  0  0  0  0  0  0  0  0
    2.0514   11.6179   -3.9681 H   0  0  0  0  0  0  0  0  0  0  0  0
    2.4811   13.3621   -3.9681 H   0  0  0  0  0  0  0  0  0  0  0  0
  1  2  1  0
  2  3  1  0
  3  4  1  0
  4  5  1  0
  5  6  1  0
  6  7  1  0
  7  8  1  0
  7  9  1  0
  2 10  1  0
 10 11  1  0
 11 12  1  0
 12 13  1  0
 13 14  1  1
 13 15  1  0
 15 16  1  0
 16 17  1  0
 17 18  2  0
 18 19  1  0
 19 20  1  0
 20 21  1  0
 21 22  1  0
 22 23  1  0
 22 24  1  0
 24 25  1  0
 24 26  1  0
 19 27  1  0
 27 28  1  6
 27 29  1  0
 29 30  1  0
 30 31  1  0
 31 32  1  6
  7  5  1  0
 31 10  1  0
 31 13  1  0
 27 15  1  0
 24 18  1  0
  1 33  1  0
  1 34  1  0
  1 35  1  0
  2 36  1  6
  3 37  1  0
  3 38  1  0
  4 39  1  0
  4 40  1  0
  5 41  1  1
  8 42  1  0
  8 43  1  0
  8 44  1  0
  9 45  1  0
  9 46  1  0
  9 47  1  0
 10 48  1  1
 11 49  1  0
 11 50  1  0
 12 51  1  0
 12 52  1  0
 14 53  1  0
 14 54  1  0
 14 55  1  0
 15 56  1  6
 16 57  1  0
 16 58  1  0
 17 59  1  0
 19 60  1  1
 20 61  1  0
 20 62  1  0
 21 63  1  0
 21 64  1  0
 22 65  1  1
 23 66  1  0
 25 67  1  0
 25 68  1  0
 25 69  1  0
 26 70  1  0
 26 71  1  0
 26 72  1  0
 28 73  1  0
 28 74  1  0
 28 75  1  0
 29 76  1  0
 29 77  1  0
 30 78  1  0
 30 79  1  0
 32 80  1  0
 32 81  1  0
 32 82  1  0
M  END
>  <meeko>  (13) 
{"is_sidechain": [false], "intermolecular_energy": 2.731, "internal_energy": -0.839}

$$$$
EPH_relaxed_0001_pdb2pqr_Repair_386_r2_0001_out
     RDKit          3D

 82 86  0  0  0  0  0  0  0  0999 V2000
  -15.2870    8.8510    0.4390 C   0  0  0  0  0  0  0  0  0  0  0  0
  -14.4120    9.1970   -0.7690 C   0  0  2  0  0  0  0  0  0  0  0  0
  -14.6930    8.2760   -1.9730 C   0  0  0  0  0  0  0  0  0  0  0  0
  -14.6190    8.9910   -3.3250 C   0  0  0  0  0  0  0  0  0  0  0  0
  -15.2870   10.3310   -3.2810 C   0  0  2  0  0  0  0  0  0  0  0  0
  -14.9930   11.1840   -4.3950 O   0  0  0  0  0  0  0  0  0  0  0  0
  -14.5330   11.6370   -3.1120 C   0  0  0  0  0  0  0  0  0  0  0  0
  -13.0430   11.6660   -2.9750 C   0  0  0  0  0  0  0  0  0  0  0  0
  -15.2750   12.8290   -2.5920 C   0  0  0  0  0  0  0  0  0  0  0  0
  -12.9390    9.1160   -0.3830 C   0  0  1  0  0  0  0  0  0  0  0  0
  -12.7140    9.2440    1.1470 C   0  0  0  0  0  0  0  0  0  0  0  0
  -11.5140    8.3290    1.5010 C   0  0  0  0  0  0  0  0  0  0  0  0
  -10.8830    7.9670    0.1350 C   0  0  1  0  0  0  0  0  0  0  0  0
   -9.9980    9.1980   -0.2360 C   0  0  0  0  0  0  0  0  0  0  0  0
  -10.0700    6.6330    0.0820 C   0  0  2  0  0  0  0  0  0  0  0  0
   -8.8310    6.5870    0.9920 C   0  0  0  0  0  0  0  0  0  0  0  0
   -7.5610    7.0590    0.3650 C   0  0  0  0  0  0  0  0  0  0  0  0
   -7.3570    7.2330   -0.9540 C   0  0  0  0  0  0  0  0  0  0  0  0
   -8.4370    6.8520   -1.9750 C   0  0  1  0  0  0  0  0  0  0  0  0
   -7.7930    6.0480   -3.1350 C   0  0  0  0  0  0  0  0  0  0  0  0
   -6.6200    6.7840   -3.7750 C   0  0  0  0  0  0  0  0  0  0  0  0
   -5.5410    7.0940   -2.7400 C   0  0  2  0  0  0  0  0  0  0  0  0
   -4.9620    5.8630   -2.2950 O   0  0  0  0  0  0  0  0  0  0  0  0
   -6.0750    7.8930   -1.5180 C   0  0  0  0  0  0  0  0  0  0  0  0
   -6.4230    9.3380   -1.9530 C   0  0  0  0  0  0  0  0  0  0  0  0
   -4.9210    8.0160   -0.4870 C   0  0  0  0  0  0  0  0  0  0  0  0
   -9.7300    6.1400   -1.3830 C   0  0  1  0  0  0  0  0  0  0  0  0
   -9.4950    4.6010   -1.2920 C   0  0  0  0  0  0  0  0  0  0  0  0
  -10.9320    6.3470   -2.3790 C   0  0  0  0  0  0  0  0  0  0  0  0
  -11.7710    7.6270   -2.1980 C   0  0  0  0  0  0  0  0  0  0  0  0
  -12.1830    7.8100   -0.7350 C   0  0  2  0  0  0  0  0  0  0  0  0
  -13.0940    6.5980   -0.3390 C   0  0  0  0  0  0  0  0  0  0  0  0
  -14.7357    9.0690    1.3656 H   0  0  0  0  0  0  0  0  0  0  0  0
  -16.2072    9.4529    0.4096 H   0  0  0  0  0  0  0  0  0  0  0  0
  -15.5467    7.7825    0.4096 H   0  0  0  0  0  0  0  0  0  0  0  0
  -14.6607   10.2239   -1.0749 H   0  0  0  0  0  0  0  0  0  0  0  0
  -13.9519    7.4632   -1.9689 H   0  0  0  0  0  0  0  0  0  0  0  0
  -15.7227    7.9055   -1.8611 H   0  0  0  0  0  0  0  0  0  0  0  0
  -13.5623    9.1283   -3.5981 H   0  0  0  0  0  0  0  0  0  0  0  0
  -15.1415    8.3719   -4.0691 H   0  0  0  0  0  0  0  0  0  0  0  0
  -16.1551    9.9067   -2.7553 H   0  0  0  0  0  0  0  0  0  0  0  0
  -12.7729   11.6713   -1.9087 H   0  0  0  0  0  0  0  0  0  0  0  0
  -12.6130   10.7761   -3.4578 H   0  0  0  0  0  0  0  0  0  0  0  0
  -12.6480   12.5720   -3.4578 H   0  0  0  0  0  0  0  0  0  0  0  0
  -15.2664   12.8151   -1.4921 H   0  0  0  0  0  0  0  0  0  0  0  0
  -14.7894   13.7484   -2.9509 H   0  0  0  0  0  0  0  0  0  0  0  0
  -16.3144   12.7992   -2.9509 H   0  0  0  0  0  0  0  0  0  0  0  0
  -12.5455    9.9516   -0.9805 H   0  0  0  0  0  0  0  0  0  0  0  0
  -12.4853   10.2873    1.4102 H   0  0  0  0  0  0  0  0  0  0  0  0
  -13.6146    8.9474    1.7047 H   0  0  0  0  0  0  0  0  0  0  0  0
  -10.7905    8.8646    2.1333 H   0  0  0  0  0  0  0  0  0  0  0  0
  -11.8218    7.4378    2.0677 H   0  0  0  0  0  0  0  0  0  0  0  0
   -9.6462    9.6873    0.6842 H   0  0  0  0  0  0  0  0  0  0  0  0
   -9.1328    8.8628   -0.8268 H   0  0  0  0  0  0  0  0  0  0  0  0
  -10.5913    9.9114   -0.8268 H   0  0  0  0  0  0  0  0  0  0  0  0
  -10.7790    5.9074    0.5072 H   0  0  0  0  0  0  0  0  0  0  0  0
   -9.0311    7.2178    1.8707 H   0  0  0  0  0  0  0  0  0  0  0  0
   -8.6732    5.5264    1.2375 H   0  0  0  0  0  0  0  0  0  0  0  0
   -6.7205    7.2837    1.0382 H   0  0  0  0  0  0  0  0  0  0  0  0
   -8.8414    7.8004   -2.3582 H   0  0  0  0  0  0  0  0  0  0  0  0
   -7.4331    5.0863   -2.7405 H   0  0  0  0  0  0  0  0  0  0  0  0
   -8.5609    5.9054   -3.9096 H   0  0  0  0  0  0  0  0  0  0  0  0
   -6.1888    6.1543   -4.5672 H   0  0  0  0  0  0  0  0  0  0  0  0
   -6.9870    7.7322   -4.1948 H   0  0  0  0  0  0  0  0  0  0  0  0
   -4.7899    7.7328   -3.2276 H   0  0  0  0  0  0  0  0  0  0  0  0
   -4.6150    5.4010   -3.0760 H   0  0  0  0  0  0  0  0  0  0  0  0
   -6.5736    9.9633   -1.0607 H   0  0  0  0  0  0  0  0  0  0  0  0
   -5.5981    9.7488   -2.5537 H   0  0  0  0  0  0  0  0  0  0  0  0
   -7.3445    9.3282   -2.5537 H   0  0  0  0  0  0  0  0  0  0  0  0
   -5.3333    7.9721    0.5318 H   0  0  0  0  0  0  0  0  0  0  0  0
   -4.2108    7.1885   -0.6311 H   0  0  0  0  0  0  0  0  0  0  0  0
   -4.4012    8.9746   -0.6311 H   0  0  0  0  0  0  0  0  0  0  0  0
   -9.4489    4.2990   -0.2353 H   0  0  0  0  0  0  0  0  0  0  0  0
  -10.3230    4.0737   -1.7883 H   0  0  0  0  0  0  0  0  0  0  0  0
   -8.5473    4.3448   -1.7883 H   0  0  0  0  0  0  0  0  0  0  0  0
  -10.5206    6.3601   -3.3991 H   0  0  0  0  0  0  0  0  0  0  0  0
  -11.6239    5.5173   -2.1720 H   0  0  0  0  0  0  0  0  0  0  0  0
  -11.1753    8.4956   -2.5154 H   0  0  0  0  0  0  0  0  0  0  0  0
  -12.6807    7.5395   -2.8102 H   0  0  0  0  0  0  0  0  0  0  0  0
  -13.1497    6.5239    0.7571 H   0  0  0  0  0  0  0  0  0  0  0  0
  -14.1038    6.7493   -0.7481 H   0  0  0  0  0  0  0  0  0  0  0  0
  -12.6679    5.6700   -0.7481 H   0  0  0  0  0  0  0  0  0  0  0  0
  1  2  1  0
  2  3  1  0
  3  4  1  0
  4  5  1  0
  5  6  1  0
  6  7  1  0
  7  8  1  0
  7  9  1  0
  2 10  1  0
 10 11  1  0
 11 12  1  0
 12 13  1  0
 13 14  1  6
 13 15  1  0
 15 16  1  0
 16 17  1  0
 17 18  2  0
 18 19  1  0
 19 20  1  0
 20 21  1  0
 21 22  1  0
 22 23  1  0
 22 24  1  0
 24 25  1  0
 24 26  1  0
 19 27  1  0
 27 28  1  1
 27 29  1  0
 29 30  1  0
 30 31  1  0
 31 32  1  1
  7  5  1  0
 31 10  1  0
 31 13  1  0
 27 15  1  0
 24 18  1  0
  1 33  1  0
  1 34  1  0
  1 35  1  0
  2 36  1  6
  3 37  1  0
  3 38  1  0
  4 39  1  0
  4 40  1  0
  5 41  1  1
  8 42  1  0
  8 43  1  0
  8 44  1  0
  9 45  1  0
  9 46  1  0
  9 47  1  0
 10 48  1  6
 11 49  1  0
 11 50  1  0
 12 51  1  0
 12 52  1  0
 14 53  1  0
 14 54  1  0
 14 55  1  0
 15 56  1  1
 16 57  1  0
 16 58  1  0
 17 59  1  0
 19 60  1  6
 20 61  1  0
 20 62  1  0
 21 63  1  0
 21 64  1  0
 22 65  1  6
 23 66  1  0
 25 67  1  0
 25 68  1  0
 25 69  1  0
 26 70  1  0
 26 71  1  0
 26 72  1  0
 28 73  1  0
 28 74  1  0
 28 75  1  0
 29 76  1  0
 29 77  1  0
 30 78  1  0
 30 79  1  0
 32 80  1  0
 32 81  1  0
 32 82  1  0
M  END
>  <meeko>  (14) 
{"is_sidechain": [false], "intermolecular_energy": 2.731, "internal_energy": -0.839}

$$$$
EPH_relaxed_0001_pdb2pqr_Repair_386_r2_0001_out
     RDKit          3D

 82 86  0  0  0  0  0  0  0  0999 V2000
    0.7370   18.3200   -2.5930 C   0  0  0  0  0  0  0  0  0  0  0  0
    0.2210   17.2560   -1.6210 C   0  0  2  0  0  0  0  0  0  0  0  0
   -0.1120   17.8470   -0.2360 C   0  0  0  0  0  0  0  0  0  0  0  0
    0.4630   19.2480   -0.0110 C   0  0  0  0  0  0  0  0  0  0  0  0
    1.6170   19.2280    0.9450 C   0  0  2  0  0  0  0  0  0  0  0  0
    2.6390   20.1940    0.6700 O   0  0  0  0  0  0  0  0  0  0  0  0
    3.0220   18.8140    0.5510 C   0  0  0  0  0  0  0  0  0  0  0  0
    3.3480   18.3910   -0.8470 C   0  0  0  0  0  0  0  0  0  0  0  0
    3.9600   18.3540    1.6240 C   0  0  0  0  0  0  0  0  0  0  0  0
    1.2490   16.1400   -1.4780 C   0  0  1  0  0  0  0  0  0  0  0  0
    1.4760   15.7220   -0.0010 C   0  0  0  0  0  0  0  0  0  0  0  0
    1.7420   14.1950   -0.0030 C   0  0  0  0  0  0  0  0  0  0  0  0
    1.9880   13.8440   -1.4890 C   0  0  1  0  0  0  0  0  0  0  0  0
    3.4770   14.2310   -1.7520 C   0  0  0  0  0  0  0  0  0  0  0  0
    1.6930   12.3670   -1.9090 C   0  0  2  0  0  0  0  0  0  0  0  0
    2.5640   11.3060   -1.2150 C   0  0  0  0  0  0  0  0  0  0  0  0
    3.8310   10.9580   -1.9230 C   0  0  0  0  0  0  0  0  0  0  0  0
    4.1210   11.2600   -3.2020 C   0  0  0  0  0  0  0  0  0  0  0  0
    3.0820   11.9370   -4.1060 C   0  0  1  0  0  0  0  0  0  0  0  0
    3.0380   11.2130   -5.4770 C   0  0  0  0  0  0  0  0  0  0  0  0
    4.4120   11.1200   -6.1340 C   0  0  0  0  0  0  0  0  0  0  0  0
    5.4010   10.3890   -5.2300 C   0  0  2  0  0  0  0  0  0  0  0  0
    4.9930    9.0230   -5.1110 O   0  0  0  0  0  0  0  0  0  0  0  0
    5.5230   11.0240   -3.8160 C   0  0  0  0  0  0  0  0  0  0  0  0
    6.2450   12.3900   -3.9190 C   0  0  0  0  0  0  0  0  0  0  0  0
    6.4420   10.1100   -2.9610 C   0  0  0  0  0  0  0  0  0  0  0  0
    1.6380   12.1370   -3.4730 C   0  0  1  0  0  0  0  0  0  0  0  0
    0.7750   10.8580   -3.7050 C   0  0  0  0  0  0  0  0  0  0  0  0
    0.9050   13.3090   -4.2260 C   0  0  0  0  0  0  0  0  0  0  0  0
    1.1420   14.7340   -3.6890 C   0  0  0  0  0  0  0  0  0  0  0  0
    0.9350   14.7910   -2.1730 C   0  0  2  0  0  0  0  0  0  0  0  0
   -0.5600   14.4270   -1.8800 C   0  0  0  0  0  0  0  0  0  0  0  0
    1.1480   19.1674   -2.0247 H   0  0  0  0  0  0  0  0  0  0  0  0
    1.5250   17.8867   -3.2264 H   0  0  0  0  0  0  0  0  0  0  0  0
   -0.0912   18.6705   -3.2264 H   0  0  0  0  0  0  0  0  0  0  0  0
   -0.7119   16.8503   -2.0394 H   0  0  0  0  0  0  0  0  0  0  0  0
   -1.2061   17.9001   -0.1349 H   0  0  0  0  0  0  0  0  0  0  0  0
    0.3469   17.1865    0.5144 H   0  0  0  0  0  0  0  0  0  0  0  0
    0.8061   19.6513   -0.9752 H   0  0  0  0  0  0  0  0  0  0  0  0
   -0.3287   19.8776    0.4212 H   0  0  0  0  0  0  0  0  0  0  0  0
    0.9593   18.9145    1.7691 H   0  0  0  0  0  0  0  0  0  0  0  0
    4.0193   17.5200   -0.8194 H   0  0  0  0  0  0  0  0  0  0  0  0
    2.4208   18.1228   -1.3746 H   0  0  0  0  0  0  0  0  0  0  0  0
    3.8436   19.2193   -1.3746 H   0  0  0  0  0  0  0  0  0  0  0  0
    3.5225   18.5686    2.6102 H   0  0  0  0  0  0  0  0  0  0  0  0
    4.1278   17.2714    1.5250 H   0  0  0  0  0  0  0  0  0  0  0  0
    4.9187   18.8842    1.5250 H   0  0  0  0  0  0  0  0  0  0  0  0
    2.1119   16.6213   -1.9615 H   0  0  0  0  0  0  0  0  0  0  0  0
    2.3427   16.2567    0.4149 H   0  0  0  0  0  0  0  0  0  0  0  0
    0.6008   15.9692    0.6179 H   0  0  0  0  0  0  0  0  0  0  0  0
    2.6268   13.9541    0.6046 H   0  0  0  0  0  0  0  0  0  0  0  0
    0.9053   13.6252    0.4273 H   0  0  0  0  0  0  0  0  0  0  0  0
    3.9959   14.3659   -0.7915 H   0  0  0  0  0  0  0  0  0  0  0  0
    3.9682   13.4307   -2.3249 H   0  0  0  0  0  0  0  0  0  0  0  0
    3.5163   15.1692   -2.3249 H   0  0  0  0  0  0  0  0  0  0  0  0
    0.6728   12.2120   -1.5280 H   0  0  0  0  0  0  0  0  0  0  0  0
    2.8258   11.6824   -0.2151 H   0  0  0  0  0  0  0  0  0  0  0  0
    1.9634   10.3846   -1.1959 H   0  0  0  0  0  0  0  0  0  0  0  0
    4.5925   10.4079   -1.3507 H   0  0  0  0  0  0  0  0  0  0  0  0
    3.4262   12.9727   -4.2430 H   0  0  0  0  0  0  0  0  0  0  0  0
    2.6498   10.1949   -5.3258 H   0  0  0  0  0  0  0  0  0  0  0  0
    2.3883   11.7993   -6.1434 H   0  0  0  0  0  0  0  0  0  0  0  0
    4.3204   10.5729   -7.0839 H   0  0  0  0  0  0  0  0  0  0  0  0
    4.7859   12.1392   -6.3114 H   0  0  0  0  0  0  0  0  0  0  0  0
    6.3946   10.4675   -5.6954 H   0  0  0  0  0  0  0  0  0  0  0  0
    4.2730    8.8740   -5.7470 H   0  0  0  0  0  0  0  0  0  0  0  0
    6.4482   12.7744   -2.9086 H   0  0  0  0  0  0  0  0  0  0  0  0
    7.1939   12.2633   -4.4608 H   0  0  0  0  0  0  0  0  0  0  0  0
    5.6058   13.1027   -4.4608 H   0  0  0  0  0  0  0  0  0  0  0  0
    6.2541   10.2969   -1.8934 H   0  0  0  0  0  0  0  0  0  0  0  0
    6.2281    9.0560   -3.1919 H   0  0  0  0  0  0  0  0  0  0  0  0
    7.4948   10.3296   -3.1919 H   0  0  0  0  0  0  0  0  0  0  0  0
    0.4859   10.4296   -2.7340 H   0  0  0  0  0  0  0  0  0  0  0  0
   -0.1292   11.1237   -4.2723 H   0  0  0  0  0  0  0  0  0  0  0  0
    1.3598   10.1190   -4.2723 H   0  0  0  0  0  0  0  0  0  0  0  0
    1.2357   13.2891   -5.2749 H   0  0  0  0  0  0  0  0  0  0  0  0
   -0.1685   13.1199   -4.0781 H   0  0  0  0  0  0  0  0  0  0  0  0
    2.1724   15.0398   -3.9230 H   0  0  0  0  0  0  0  0  0  0  0  0
    0.4204   15.4129   -4.1668 H   0  0  0  0  0  0  0  0  0  0  0  0
   -0.7215   14.3877   -0.7926 H   0  0  0  0  0  0  0  0  0  0  0  0
   -1.2167   15.1915   -2.3208 H   0  0  0  0  0  0  0  0  0  0  0  0
   -0.7917   13.4462   -2.3208 H   0  0  0  0  0  0  0  0  0  0  0  0
  1  2  1  0
  2  3  1  0
  3  4  1  0
  4  5  1  0
  5  6  1  0
  6  7  1  0
  7  8  1  0
  7  9  1  0
  2 10  1  0
 10 11  1  0
 11 12  1  0
 12 13  1  0
 13 14  1  6
 13 15  1  0
 15 16  1  0
 16 17  1  0
 17 18  2  0
 18 19  1  0
 19 20  1  0
 20 21  1  0
 21 22  1  0
 22 23  1  0
 22 24  1  0
 24 25  1  0
 24 26  1  0
 19 27  1  0
 27 28  1  1
 27 29  1  0
 29 30  1  0
 30 31  1  0
 31 32  1  6
  7  5  1  0
 31 10  1  0
 31 13  1  0
 27 15  1  0
 24 18  1  0
  1 33  1  0
  1 34  1  0
  1 35  1  0
  2 36  1  6
  3 37  1  0
  3 38  1  0
  4 39  1  0
  4 40  1  0
  5 41  1  1
  8 42  1  0
  8 43  1  0
  8 44  1  0
  9 45  1  0
  9 46  1  0
  9 47  1  0
 10 48  1  6
 11 49  1  0
 11 50  1  0
 12 51  1  0
 12 52  1  0
 14 53  1  0
 14 54  1  0
 14 55  1  0
 15 56  1  1
 16 57  1  0
 16 58  1  0
 17 59  1  0
 19 60  1  6
 20 61  1  0
 20 62  1  0
 21 63  1  0
 21 64  1  0
 22 65  1  6
 23 66  1  0
 25 67  1  0
 25 68  1  0
 25 69  1  0
 26 70  1  0
 26 71  1  0
 26 72  1  0
 28 73  1  0
 28 74  1  0
 28 75  1  0
 29 76  1  0
 29 77  1  0
 30 78  1  0
 30 79  1  0
 32 80  1  0
 32 81  1  0
 32 82  1  0
M  END
>  <meeko>  (15) 
{"is_sidechain": [false], "intermolecular_energy": 2.731, "internal_energy": -0.839}

$$$$
EPH_relaxed_0001_pdb2pqr_Repair_386_r2_0001_out
     RDKit          3D

 82 86  0  0  0  0  0  0  0  0999 V2000
    1.6850   19.6060   -1.8690 C   0  0  0  0  0  0  0  0  0  0  0  0
    0.7930   19.4220   -0.6380 C   0  0  2  0  0  0  0  0  0  0  0  0
    1.3630   20.1350    0.6040 C   0  0  0  0  0  0  0  0  0  0  0  0
    2.8930   20.1910    0.6340 C   0  0  0  0  0  0  0  0  0  0  0  0
    3.4250   20.0730    2.0300 C   0  0  2  0  0  0  0  0  0  0  0  0
    4.8490   20.1940    2.1410 O   0  0  0  0  0  0  0  0  0  0  0  0
    4.2920   18.9190    2.5000 C   0  0  0  0  0  0  0  0  0  0  0  0
    4.6760   17.8050    1.5780 C   0  0  0  0  0  0  0  0  0  0  0  0
    4.3570   18.6250    3.9660 C   0  0  0  0  0  0  0  0  0  0  0  0
    0.6100   17.9370   -0.3480 C   0  0  1  0  0  0  0  0  0  0  0  0
   -0.6960   17.6390    0.4370 C   0  0  0  0  0  0  0  0  0  0  0  0
   -1.2220   16.2720   -0.0720 C   0  0  0  0  0  0  0  0  0  0  0  0
   -0.0440   15.6780   -0.8800 C   0  0  1  0  0  0  0  0  0  0  0  0
    0.9040   15.0550    0.1920 C   0  0  0  0  0  0  0  0  0  0  0  0
   -0.4210   14.6410   -1.9880 C   0  0  2  0  0  0  0  0  0  0  0  0
   -1.0980   13.3570   -1.4790 C   0  0  0  0  0  0  0  0  0  0  0  0
   -0.1700   12.2380   -1.1420 C   0  0  0  0  0  0  0  0  0  0  0  0
    1.1230   12.1560   -1.5080 C   0  0  0  0  0  0  0  0  0  0  0  0
    1.7500   13.2140   -2.4260 C   0  0  1  0  0  0  0  0  0  0  0  0
    2.5660   12.5120   -3.5430 C   0  0  0  0  0  0  0  0  0  0  0  0
    3.5980   11.5360   -2.9880 C   0  0  0  0  0  0  0  0  0  0  0  0
    2.9300   10.4650   -2.1290 C   0  0  2  0  0  0  0  0  0  0  0  0
    2.1110    9.6460   -2.9690 O   0  0  0  0  0  0  0  0  0  0  0  0
    2.0710   11.0540   -0.9750 C   0  0  0  0  0  0  0  0  0  0  0  0
    2.9970   11.6850    0.0940 C   0  0  0  0  0  0  0  0  0  0  0  0
    1.3410    9.8760   -0.2750 C   0  0  0  0  0  0  0  0  0  0  0  0
    0.7550   14.3140   -2.9960 C   0  0  1  0  0  0  0  0  0  0  0  0
    0.0870   13.7990   -4.3070 C   0  0  0  0  0  0  0  0  0  0  0  0
    1.5790   15.5970   -3.3910 C   0  0  0  0  0  0  0  0  0  0  0  0
    1.8150   16.6400   -2.2820 C   0  0  0  0  0  0  0  0  0  0  0  0
    0.5060   16.9820   -1.5630 C   0  0  2  0  0  0  0  0  0  0  0  0
   -0.4600   17.6300   -2.6120 C   0  0  0  0  0  0  0  0  0  0  0  0
    2.7151   19.8185   -1.5469 H   0  0  0  0  0  0  0  0  0  0  0  0
    1.6718   18.6862   -2.4722 H   0  0  0  0  0  0  0  0  0  0  0  0
    1.3089   20.4455   -2.4722 H   0  0  0  0  0  0  0  0  0  0  0  0
   -0.1813   19.8805   -0.8630 H   0  0  0  0  0  0  0  0  0  0  0  0
    0.9775   21.1651    0.6205 H   0  0  0  0  0  0  0  0  0  0  0  0
    1.0455   19.5537    1.4822 H   0  0  0  0  0  0  0  0  0  0  0  0
    3.2919   19.3631    0.0294 H   0  0  0  0  0  0  0  0  0  0  0  0
    3.2084   21.1635    0.2280 H   0  0  0  0  0  0  0  0  0  0  0  0
    2.5103   20.5245    2.4417 H   0  0  0  0  0  0  0  0  0  0  0  0
    4.9784   16.9278    2.1688 H   0  0  0  0  0  0  0  0  0  0  0  0
    3.8169   17.5414    0.9437 H   0  0  0  0  0  0  0  0  0  0  0  0
    5.5151   18.1268    0.9437 H   0  0  0  0  0  0  0  0  0  0  0  0
    4.1536   19.5449    4.5338 H   0  0  0  0  0  0  0  0  0  0  0  0
    3.6056   17.8631    4.2208 H   0  0  0  0  0  0  0  0  0  0  0  0
    5.3595   18.2509    4.2208 H   0  0  0  0  0  0  0  0  0  0  0  0
    1.5402   17.7413    0.2056 H   0  0  0  0  0  0  0  0  0  0  0  0
   -0.4860   17.5863    1.5155 H   0  0  0  0  0  0  0  0  0  0  0  0
   -1.4413   18.4325    0.2793 H   0  0  0  0  0  0  0  0  0  0  0  0
   -1.4830   15.6173    0.7725 H   0  0  0  0  0  0  0  0  0  0  0  0
   -2.1341   16.3751   -0.6781 H   0  0  0  0  0  0  0  0  0  0  0  0
    0.5314   15.2998    1.1976 H   0  0  0  0  0  0  0  0  0  0  0  0
    0.9311   13.9625    0.0670 H   0  0  0  0  0  0  0  0  0  0  0  0
    1.9176   15.4636    0.0670 H   0  0  0  0  0  0  0  0  0  0  0  0
   -1.1927   15.1776   -2.5595 H   0  0  0  0  0  0  0  0  0  0  0  0
   -1.6688   13.6097   -0.5733 H   0  0  0  0  0  0  0  0  0  0  0  0
   -1.7243   12.9941   -2.3073 H   0  0  0  0  0  0  0  0  0  0  0  0
   -0.5771   11.4096   -0.5436 H   0  0  0  0  0  0  0  0  0  0  0  0
    2.4227   13.8086   -1.7905 H   0  0  0  0  0  0  0  0  0  0  0  0
    1.8715   11.9591   -4.1926 H   0  0  0  0  0  0  0  0  0  0  0  0
    3.1083   13.2905   -4.0997 H   0  0  0  0  0  0  0  0  0  0  0  0
    4.1215   11.0511   -3.8252 H   0  0  0  0  0  0  0  0  0  0  0  0
    4.3087   12.0952   -2.3618 H   0  0  0  0  0  0  0  0  0  0  0  0
    3.7287    9.8749   -1.6558 H   0  0  0  0  0  0  0  0  0  0  0  0
    2.3810    9.8050   -3.8890 H   0  0  0  0  0  0  0  0  0  0  0  0
    2.6247   11.4313    1.0975 H   0  0  0  0  0  0  0  0  0  0  0  0
    4.0178   11.2937   -0.0281 H   0  0  0  0  0  0  0  0  0  0  0  0
    3.0063   12.7782   -0.0281 H   0  0  0  0  0  0  0  0  0  0  0  0
    1.4149    9.9953    0.8160 H   0  0  0  0  0  0  0  0  0  0  0  0
    0.2820    9.8722   -0.5725 H   0  0  0  0  0  0  0  0  0  0  0  0
    1.8089    8.9260   -0.5725 H   0  0  0  0  0  0  0  0  0  0  0  0
   -0.7608   13.1453   -4.0542 H   0  0  0  0  0  0  0  0  0  0  0  0
   -0.2731   14.6554   -4.8959 H   0  0  0  0  0  0  0  0  0  0  0  0
    0.8236   13.2328   -4.8959 H   0  0  0  0  0  0  0  0  0  0  0  0
    2.5641   15.2627   -3.7485 H   0  0  0  0  0  0  0  0  0  0  0  0
    0.9654   16.1122   -4.1447 H   0  0  0  0  0  0  0  0  0  0  0  0
    2.5308   16.2336   -1.5523 H   0  0  0  0  0  0  0  0  0  0  0  0
    2.2124   17.5569   -2.7418 H   0  0  0  0  0  0  0  0  0  0  0  0
   -1.2629   18.1686   -2.0874 H   0  0  0  0  0  0  0  0  0  0  0  0
    0.1026   18.3341   -3.2426 H   0  0  0  0  0  0  0  0  0  0  0  0
   -0.8981   16.8424   -3.2426 H   0  0  0  0  0  0  0  0  0  0  0  0
  1  2  1  0
  2  3  1  0
  3  4  1  0
  4  5  1  0
  5  6  1  0
  6  7  1  0
  7  8  1  0
  7  9  1  0
  2 10  1  0
 10 11  1  0
 11 12  1  0
 12 13  1  0
 13 14  1  1
 13 15  1  0
 15 16  1  0
 16 17  1  0
 17 18  2  0
 18 19  1  0
 19 20  1  0
 20 21  1  0
 21 22  1  0
 22 23  1  0
 22 24  1  0
 24 25  1  0
 24 26  1  0
 19 27  1  0
 27 28  1  6
 27 29  1  0
 29 30  1  0
 30 31  1  0
 31 32  1  6
  7  5  1  0
 31 10  1  0
 31 13  1  0
 27 15  1  0
 24 18  1  0
  1 33  1  0
  1 34  1  0
  1 35  1  0
  2 36  1  6
  3 37  1  0
  3 38  1  0
  4 39  1  0
  4 40  1  0
  5 41  1  1
  8 42  1  0
  8 43  1  0
  8 44  1  0
  9 45  1  0
  9 46  1  0
  9 47  1  0
 10 48  1  1
 11 49  1  0
 11 50  1  0
 12 51  1  0
 12 52  1  0
 14 53  1  0
 14 54  1  0
 14 55  1  0
 15 56  1  6
 16 57  1  0
 16 58  1  0
 17 59  1  0
 19 60  1  1
 20 61  1  0
 20 62  1  0
 21 63  1  0
 21 64  1  0
 22 65  1  1
 23 66  1  0
 25 67  1  0
 25 68  1  0
 25 69  1  0
 26 70  1  0
 26 71  1  0
 26 72  1  0
 28 73  1  0
 28 74  1  0
 28 75  1  0
 29 76  1  0
 29 77  1  0
 30 78  1  0
 30 79  1  0
 32 80  1  0
 32 81  1  0
 32 82  1  0
M  END
>  <meeko>  (16) 
{"is_sidechain": [false], "intermolecular_energy": 2.731, "internal_energy": -0.839}

$$$$
EPH_relaxed_0001_pdb2pqr_Repair_386_r2_0001_out
     RDKit          3D

 82 86  0  0  0  0  0  0  0  0999 V2000
  -12.6450    8.5000    2.1550 C   0  0  0  0  0  0  0  0  0  0  0  0
  -12.8930    8.5590    0.6450 C   0  0  2  0  0  0  0  0  0  0  0  0
  -14.3100    8.0840    0.2710 C   0  0  0  0  0  0  0  0  0  0  0  0
  -15.2370    9.2130   -0.1880 C   0  0  0  0  0  0  0  0  0  0  0  0
  -15.2780    9.3230   -1.6820 C   0  0  2  0  0  0  0  0  0  0  0  0
  -13.9930    9.3300   -2.3180 O   0  0  0  0  0  0  0  0  0  0  0  0
  -14.7700   10.5320   -2.4460 C   0  0  0  0  0  0  0  0  0  0  0  0
  -14.1840   11.7130   -1.7380 C   0  0  0  0  0  0  0  0  0  0  0  0
  -15.2850   10.7720   -3.8310 C   0  0  0  0  0  0  0  0  0  0  0  0
  -11.8510    7.7200   -0.0850 C   0  0  1  0  0  0  0  0  0  0  0  0
  -12.4720    6.8320   -1.1970 C   0  0  0  0  0  0  0  0  0  0  0  0
  -11.4350    6.7640   -2.3470 C   0  0  0  0  0  0  0  0  0  0  0  0
  -10.1330    7.3280   -1.7310 C   0  0  1  0  0  0  0  0  0  0  0  0
   -9.5160    6.1360   -0.9350 C   0  0  0  0  0  0  0  0  0  0  0  0
   -9.1050    7.9450   -2.7350 C   0  0  2  0  0  0  0  0  0  0  0  0
   -8.5320    6.9610   -3.7690 C   0  0  0  0  0  0  0  0  0  0  0  0
   -7.2810    6.2590   -3.3560 C   0  0  0  0  0  0  0  0  0  0  0  0
   -6.4870    6.6150   -2.3290 C   0  0  0  0  0  0  0  0  0  0  0  0
   -6.7680    7.8880   -1.5200 C   0  0  1  0  0  0  0  0  0  0  0  0
   -5.4500    8.6840   -1.3330 C   0  0  0  0  0  0  0  0  0  0  0  0
   -4.3370    7.8380   -0.7220 C   0  0  0  0  0  0  0  0  0  0  0  0
   -4.0470    6.6130   -1.5840 C   0  0  2  0  0  0  0  0  0  0  0  0
   -3.4920    7.0470   -2.8300 O   0  0  0  0  0  0  0  0  0  0  0  0
   -5.3040    5.7380   -1.8490 C   0  0  0  0  0  0  0  0  0  0  0  0
   -5.7260    5.0250   -0.5410 C   0  0  0  0  0  0  0  0  0  0  0  0
   -4.9040    4.6160   -2.8450 C   0  0  0  0  0  0  0  0  0  0  0  0
   -7.9600    8.7960   -2.0500 C   0  0  1  0  0  0  0  0  0  0  0  0
   -7.4340    9.7880   -3.1320 C   0  0  0  0  0  0  0  0  0  0  0  0
   -8.5000    9.6790   -0.8630 C   0  0  0  0  0  0  0  0  0  0  0  0
   -9.5990    9.0590    0.0200 C   0  0  0  0  0  0  0  0  0  0  0  0
  -10.7270    8.4760   -0.8370 C   0  0  2  0  0  0  0  0  0  0  0  0
  -11.3820    9.6560   -1.6330 C   0  0  0  0  0  0  0  0  0  0  0  0
  -13.5805    8.7226    2.6892 H   0  0  0  0  0  0  0  0  0  0  0  0
  -12.2961    7.4938    2.4302 H   0  0  0  0  0  0  0  0  0  0  0  0
  -11.8803    9.2413    2.4302 H   0  0  0  0  0  0  0  0  0  0  0  0
  -12.8061    9.6109    0.3352 H   0  0  0  0  0  0  0  0  0  0  0  0
  -14.2263    7.3503   -0.5443 H   0  0  0  0  0  0  0  0  0  0  0  0
  -14.7546    7.6527    1.1800 H   0  0  0  0  0  0  0  0  0  0  0  0
  -16.2531    9.0131    0.1828 H   0  0  0  0  0  0  0  0  0  0  0  0
  -14.8497   10.1603    0.2153 H   0  0  0  0  0  0  0  0  0  0  0  0
  -16.2295    8.7724   -1.7198 H   0  0  0  0  0  0  0  0  0  0  0  0
  -14.2585   11.5628   -0.6508 H   0  0  0  0  0  0  0  0  0  0  0  0
  -13.1268   11.8229   -2.0214 H   0  0  0  0  0  0  0  0  0  0  0  0
  -14.7359   12.6213   -2.0214 H   0  0  0  0  0  0  0  0  0  0  0  0
  -16.2808   11.2361   -3.7766 H   0  0  0  0  0  0  0  0  0  0  0  0
  -14.5969   11.4422   -4.3670 H   0  0  0  0  0  0  0  0  0  0  0  0
  -15.3557    9.8141   -4.3670 H   0  0  0  0  0  0  0  0  0  0  0  0
  -11.4281    7.1692    0.7681 H   0  0  0  0  0  0  0  0  0  0  0  0
  -12.6727    5.8229   -0.8079 H   0  0  0  0  0  0  0  0  0  0  0  0
  -13.4259    7.2509   -1.5499 H   0  0  0  0  0  0  0  0  0  0  0  0
  -11.2898    5.7252   -2.6782 H   0  0  0  0  0  0  0  0  0  0  0  0
  -11.7569    7.3302   -3.2335 H   0  0  0  0  0  0  0  0  0  0  0  0
   -9.6142    6.3257    0.1441 H   0  0  0  0  0  0  0  0  0  0  0  0
  -10.0471    5.2081   -1.1940 H   0  0  0  0  0  0  0  0  0  0  0  0
   -8.4518    6.0339   -1.1940 H   0  0  0  0  0  0  0  0  0  0  0  0
   -9.7274    8.6495   -3.3062 H   0  0  0  0  0  0  0  0  0  0  0  0
   -9.2980    6.1985   -3.9735 H   0  0  0  0  0  0  0  0  0  0  0  0
   -8.2658    7.5650   -4.6490 H   0  0  0  0  0  0  0  0  0  0  0  0
   -6.9828    5.3761   -3.9404 H   0  0  0  0  0  0  0  0  0  0  0  0
   -7.1419    7.5513   -0.5418 H   0  0  0  0  0  0  0  0  0  0  0  0
   -5.1163    9.0493   -2.3155 H   0  0  0  0  0  0  0  0  0  0  0  0
   -5.6566    9.5139   -0.6412 H   0  0  0  0  0  0  0  0  0  0  0  0
   -3.4242    8.4468   -0.6430 H   0  0  0  0  0  0  0  0  0  0  0  0
   -4.6603    7.4984    0.2730 H   0  0  0  0  0  0  0  0  0  0  0  0
   -3.3365    5.9814   -1.0305 H   0  0  0  0  0  0  0  0  0  0  0  0
   -2.7370    6.4690   -3.0330 H   0  0  0  0  0  0  0  0  0  0  0  0
   -5.3797    5.6101    0.3237 H   0  0  0  0  0  0  0  0  0  0  0  0
   -6.8220    4.9366   -0.5087 H   0  0  0  0  0  0  0  0  0  0  0  0
   -5.2761    4.0217   -0.5087 H   0  0  0  0  0  0  0  0  0  0  0  0
   -4.5861    3.7244   -2.2846 H   0  0  0  0  0  0  0  0  0  0  0  0
   -5.7672    4.3628   -3.4780 H   0  0  0  0  0  0  0  0  0  0  0  0
   -4.0752    4.9660   -3.4780 H   0  0  0  0  0  0  0  0  0  0  0  0
   -6.9732   10.6570   -2.6396 H   0  0  0  0  0  0  0  0  0  0  0  0
   -6.6854    9.2826   -3.7598 H   0  0  0  0  0  0  0  0  0  0  0  0
   -8.2724   10.1241   -3.7598 H   0  0  0  0  0  0  0  0  0  0  0  0
   -7.6464    9.9194   -0.2121 H   0  0  0  0  0  0  0  0  0  0  0  0
   -8.9731   10.5483   -1.3432 H   0  0  0  0  0  0  0  0  0  0  0  0
   -9.1598    8.2566    0.6309 H   0  0  0  0  0  0  0  0  0  0  0  0
  -10.0184    9.8468    0.6630 H   0  0  0  0  0  0  0  0  0  0  0  0
  -11.7910   10.3928   -0.9260 H   0  0  0  0  0  0  0  0  0  0  0  0
  -10.6222   10.1377   -2.2659 H   0  0  0  0  0  0  0  0  0  0  0  0
  -12.1927    9.2659   -2.2659 H   0  0  0  0  0  0  0  0  0  0  0  0
  1  2  1  0
  2  3  1  0
  3  4  1  0
  4  5  1  0
  5  6  1  0
  6  7  1  0
  7  8  1  0
  7  9  1  0
  2 10  1  0
 10 11  1  0
 11 12  1  0
 12 13  1  0
 13 14  1  1
 13 15  1  0
 15 16  1  0
 16 17  1  0
 17 18  2  0
 18 19  1  0
 19 20  1  0
 20 21  1  0
 21 22  1  0
 22 23  1  0
 22 24  1  0
 24 25  1  0
 24 26  1  0
 19 27  1  0
 27 28  1  6
 27 29  1  0
 29 30  1  0
 30 31  1  0
 31 32  1  6
  7  5  1  0
 31 10  1  0
 31 13  1  0
 27 15  1  0
 24 18  1  0
  1 33  1  0
  1 34  1  0
  1 35  1  0
  2 36  1  6
  3 37  1  0
  3 38  1  0
  4 39  1  0
  4 40  1  0
  5 41  1  6
  8 42  1  0
  8 43  1  0
  8 44  1  0
  9 45  1  0
  9 46  1  0
  9 47  1  0
 10 48  1  1
 11 49  1  0
 11 50  1  0
 12 51  1  0
 12 52  1  0
 14 53  1  0
 14 54  1  0
 14 55  1  0
 15 56  1  6
 16 57  1  0
 16 58  1  0
 17 59  1  0
 19 60  1  1
 20 61  1  0
 20 62  1  0
 21 63  1  0
 21 64  1  0
 22 65  1  1
 23 66  1  0
 25 67  1  0
 25 68  1  0
 25 69  1  0
 26 70  1  0
 26 71  1  0
 26 72  1  0
 28 73  1  0
 28 74  1  0
 28 75  1  0
 29 76  1  0
 29 77  1  0
 30 78  1  0
 30 79  1  0
 32 80  1  0
 32 81  1  0
 32 82  1  0
M  END
>  <meeko>  (17) 
{"is_sidechain": [false], "intermolecular_energy": 2.731, "internal_energy": -0.839}

$$$$
EPH_relaxed_0001_pdb2pqr_Repair_386_r2_0001_out
     RDKit          3D

 82 86  0  0  0  0  0  0  0  0999 V2000
    3.1390   18.4330   -3.5400 C   0  0  0  0  0  0  0  0  0  0  0  0
    1.9910   18.0080   -2.6200 C   0  0  2  0  0  0  0  0  0  0  0  0
    1.7300   19.0370   -1.5020 C   0  0  0  0  0  0  0  0  0  0  0  0
    1.8430   18.4540   -0.0910 C   0  0  0  0  0  0  0  0  0  0  0  0
    2.2220   19.5000    0.9130 C   0  0  2  0  0  0  0  0  0  0  0  0
    3.4430   20.1940    0.6220 O   0  0  0  0  0  0  0  0  0  0  0  0
    3.4380   19.3930    1.8150 C   0  0  0  0  0  0  0  0  0  0  0  0
    4.3500   18.2080    1.7570 C   0  0  0  0  0  0  0  0  0  0  0  0
    3.4630   20.1940    3.0790 C   0  0  0  0  0  0  0  0  0  0  0  0
    2.2900   16.6420   -2.0130 C   0  0  1  0  0  0  0  0  0  0  0  0
    3.0290   16.7440   -0.6510 C   0  0  0  0  0  0  0  0  0  0  0  0
    2.5150   15.5720    0.2240 C   0  0  0  0  0  0  0  0  0  0  0  0
    1.7590   14.6510   -0.7610 C   0  0  1  0  0  0  0  0  0  0  0  0
    2.8730   13.8080   -1.4580 C   0  0  0  0  0  0  0  0  0  0  0  0
    0.6480   13.7400   -0.1430 C   0  0  2  0  0  0  0  0  0  0  0  0
    1.1460   12.7120    0.8880 C   0  0  0  0  0  0  0  0  0  0  0  0
    1.5300   11.3830    0.3280 C   0  0  0  0  0  0  0  0  0  0  0  0
    1.2140   10.9300   -0.9000 C   0  0  0  0  0  0  0  0  0  0  0  0
    0.3090   11.7470   -1.8310 C   0  0  1  0  0  0  0  0  0  0  0  0
   -0.7690   10.8190   -2.4510 C   0  0  0  0  0  0  0  0  0  0  0  0
   -0.1640    9.6010   -3.1440 C   0  0  0  0  0  0  0  0  0  0  0  0
    0.6810    8.7830   -2.1710 C   0  0  2  0  0  0  0  0  0  0  0  0
   -0.1800    8.2120   -1.1810 O   0  0  0  0  0  0  0  0  0  0  0  0
    1.7950    9.6160   -1.4770 C   0  0  0  0  0  0  0  0  0  0  0  0
    2.8910    9.9810   -2.5090 C   0  0  0  0  0  0  0  0  0  0  0  0
    2.4800    8.7090   -0.4190 C   0  0  0  0  0  0  0  0  0  0  0  0
   -0.3100   13.0720   -1.2100 C   0  0  1  0  0  0  0  0  0  0  0  0
   -1.6400   12.7390   -0.4670 C   0  0  0  0  0  0  0  0  0  0  0  0
   -0.6880   14.0590   -2.3770 C   0  0  0  0  0  0  0  0  0  0  0  0
    0.4180   15.0150   -2.8630 C   0  0  0  0  0  0  0  0  0  0  0  0
    1.0820   15.7300   -1.6820 C   0  0  2  0  0  0  0  0  0  0  0  0
   -0.0090   16.6040   -0.9760 C   0  0  0  0  0  0  0  0  0  0  0  0
    3.9982   18.7511   -2.9312 H   0  0  0  0  0  0  0  0  0  0  0  0
    3.4335   17.5843   -4.1748 H   0  0  0  0  0  0  0  0  0  0  0  0
    2.8099   19.2689   -4.1748 H   0  0  0  0  0  0  0  0  0  0  0  0
    1.0796   17.9506   -3.2333 H   0  0  0  0  0  0  0  0  0  0  0  0
    2.4630   19.8511   -1.6012 H   0  0  0  0  0  0  0  0  0  0  0  0
    0.6945   19.3878   -1.6231 H   0  0  0  0  0  0  0  0  0  0  0  0
    0.8729   18.0210    0.1944 H   0  0  0  0  0  0  0  0  0  0  0  0
    2.6306   17.6861   -0.0997 H   0  0  0  0  0  0  0  0  0  0  0  0
    1.1640   19.7152    1.1236 H   0  0  0  0  0  0  0  0  0  0  0  0
    4.5980   17.8858    2.7791 H   0  0  0  0  0  0  0  0  0  0  0  0
    3.8494   17.3858    1.2246 H   0  0  0  0  0  0  0  0  0  0  0  0
    5.2730   18.4814    1.2246 H   0  0  0  0  0  0  0  0  0  0  0  0
    3.4418   19.5148    3.9440 H   0  0  0  0  0  0  0  0  0  0  0  0
    4.3805   20.8000    3.1110 H   0  0  0  0  0  0  0  0  0  0  0  0
    2.5851   20.8560    3.1110 H   0  0  0  0  0  0  0  0  0  0  0  0
    2.8800   16.2016   -2.8303 H   0  0  0  0  0  0  0  0  0  0  0  0
    4.1151   16.6566   -0.8016 H   0  0  0  0  0  0  0  0  0  0  0  0
    2.8355   17.7130   -0.1676 H   0  0  0  0  0  0  0  0  0  0  0  0
    3.3561   15.0364    0.6884 H   0  0  0  0  0  0  0  0  0  0  0  0
    1.8731   15.9173    1.0479 H   0  0  0  0  0  0  0  0  0  0  0  0
    3.5038   13.3306   -0.6937 H   0  0  0  0  0  0  0  0  0  0  0  0
    2.4081   13.0335   -2.0857 H   0  0  0  0  0  0  0  0  0  0  0  0
    3.4920   14.4659   -2.0857 H   0  0  0  0  0  0  0  0  0  0  0  0
    0.0402   14.4605    0.4239 H   0  0  0  0  0  0  0  0  0  0  0  0
    2.0269   13.1358    1.3925 H   0  0  0  0  0  0  0  0  0  0  0  0
    0.2991   12.5243    1.5644 H   0  0  0  0  0  0  0  0  0  0  0  0
    2.1215   10.7169    0.9733 H   0  0  0  0  0  0  0  0  0  0  0  0
    0.9636   12.1398   -2.6230 H   0  0  0  0  0  0  0  0  0  0  0  0
   -1.4389   10.4726   -1.6503 H   0  0  0  0  0  0  0  0  0  0  0  0
   -1.3128   11.3997   -3.2107 H   0  0  0  0  0  0  0  0  0  0  0  0
   -0.9753    8.9694   -3.5350 H   0  0  0  0  0  0  0  0  0  0  0  0
    0.4822    9.9485   -3.9636 H   0  0  0  0  0  0  0  0  0  0  0  0
    1.1908    8.0012   -2.7531 H   0  0  0  0  0  0  0  0  0  0  0  0
   -0.0420    7.2500   -1.1900 H   0  0  0  0  0  0  0  0  0  0  0  0
    3.8060   10.2857   -1.9799 H   0  0  0  0  0  0  0  0  0  0  0  0
    3.1064    9.1061   -3.1400 H   0  0  0  0  0  0  0  0  0  0  0  0
    2.5389   10.8104   -3.1400 H   0  0  0  0  0  0  0  0  0  0  0  0
    2.2159    9.0587    0.5899 H   0  0  0  0  0  0  0  0  0  0  0  0
    2.1380    7.6716   -0.5487 H   0  0  0  0  0  0  0  0  0  0  0  0
    3.5714    8.7542   -0.5487 H   0  0  0  0  0  0  0  0  0  0  0  0
   -1.4734   12.7807    0.6195 H   0  0  0  0  0  0  0  0  0  0  0  0
   -2.4105   13.4719   -0.7482 H   0  0  0  0  0  0  0  0  0  0  0  0
   -1.9742   11.7294   -0.7482 H   0  0  0  0  0  0  0  0  0  0  0  0
   -1.0046   13.4513   -3.2375 H   0  0  0  0  0  0  0  0  0  0  0  0
   -1.4701   14.7111   -1.9609 H   0  0  0  0  0  0  0  0  0  0  0  0
    1.1791   14.4374   -3.4081 H   0  0  0  0  0  0  0  0  0  0  0  0
   -0.0356   15.7709   -3.5209 H   0  0  0  0  0  0  0  0  0  0  0  0
    0.1004   16.5163    0.1150 H   0  0  0  0  0  0  0  0  0  0  0  0
    0.1147   17.6557   -1.2736 H   0  0  0  0  0  0  0  0  0  0  0  0
   -1.0084   16.2538   -1.2736 H   0  0  0  0  0  0  0  0  0  0  0  0
  1  2  1  0
  2  3  1  0
  3  4  1  0
  4  5  1  0
  5  6  1  0
  6  7  1  0
  7  8  1  0
  7  9  1  0
  2 10  1  0
 10 11  1  0
 11 12  1  0
 12 13  1  0
 13 14  1  6
 13 15  1  0
 15 16  1  0
 16 17  1  0
 17 18  2  0
 18 19  1  0
 19 20  1  0
 20 21  1  0
 21 22  1  0
 22 23  1  0
 22 24  1  0
 24 25  1  0
 24 26  1  0
 19 27  1  0
 27 28  1  1
 27 29  1  0
 29 30  1  0
 30 31  1  0
 31 32  1  1
  7  5  1  0
 31 10  1  0
 31 13  1  0
 27 15  1  0
 24 18  1  0
  1 33  1  0
  1 34  1  0
  1 35  1  0
  2 36  1  6
  3 37  1  0
  3 38  1  0
  4 39  1  0
  4 40  1  0
  5 41  1  1
  8 42  1  0
  8 43  1  0
  8 44  1  0
  9 45  1  0
  9 46  1  0
  9 47  1  0
 10 48  1  6
 11 49  1  0
 11 50  1  0
 12 51  1  0
 12 52  1  0
 14 53  1  0
 14 54  1  0
 14 55  1  0
 15 56  1  1
 16 57  1  0
 16 58  1  0
 17 59  1  0
 19 60  1  6
 20 61  1  0
 20 62  1  0
 21 63  1  0
 21 64  1  0
 22 65  1  6
 23 66  1  0
 25 67  1  0
 25 68  1  0
 25 69  1  0
 26 70  1  0
 26 71  1  0
 26 72  1  0
 28 73  1  0
 28 74  1  0
 28 75  1  0
 29 76  1  0
 29 77  1  0
 30 78  1  0
 30 79  1  0
 32 80  1  0
 32 81  1  0
 32 82  1  0
M  END
>  <meeko>  (18) 
{"is_sidechain": [false], "intermolecular_energy": 2.731, "internal_energy": -0.839}

$$$$
EPH_relaxed_0001_pdb2pqr_Repair_386_r2_0001_out
     RDKit          3D

 82 86  0  0  0  0  0  0  0  0999 V2000
  -14.3060    5.5490    0.4930 C   0  0  0  0  0  0  0  0  0  0  0  0
  -13.7870    6.9780    0.3110 C   0  0  2  0  0  0  0  0  0  0  0  0
  -14.9190    7.9690   -0.0260 C   0  0  0  0  0  0  0  0  0  0  0  0
  -14.5630    9.4300    0.2580 C   0  0  0  0  0  0  0  0  0  0  0  0
  -15.2860   10.3660   -0.6620 C   0  0  2  0  0  0  0  0  0  0  0  0
  -15.2880    9.9680   -2.0400 O   0  0  0  0  0  0  0  0  0  0  0  0
  -14.5920   11.1880   -1.7330 C   0  0  0  0  0  0  0  0  0  0  0  0
  -13.1120   11.1120   -1.9380 C   0  0  0  0  0  0  0  0  0  0  0  0
  -15.2760   12.4170   -2.2460 C   0  0  0  0  0  0  0  0  0  0  0  0
  -12.7240    7.0090   -0.7810 C   0  0  1  0  0  0  0  0  0  0  0  0
  -13.1470    7.8700   -2.0010 C   0  0  0  0  0  0  0  0  0  0  0  0
  -11.8590    8.5450   -2.5400 C   0  0  0  0  0  0  0  0  0  0  0  0
  -10.7030    7.8010   -1.8310 C   0  0  1  0  0  0  0  0  0  0  0  0
  -10.5080    6.4880   -2.6520 C   0  0  0  0  0  0  0  0  0  0  0  0
   -9.3630    8.5920   -1.6810 C   0  0  2  0  0  0  0  0  0  0  0  0
   -8.6840    8.9840   -3.0050 C   0  0  0  0  0  0  0  0  0  0  0  0
   -7.7100    7.9880   -3.5420 C   0  0  0  0  0  0  0  0  0  0  0  0
   -7.1790    6.9620   -2.8510 C   0  0  0  0  0  0  0  0  0  0  0  0
   -7.4760    6.7820   -1.3570 C   0  0  1  0  0  0  0  0  0  0  0  0
   -6.1540    6.4940   -0.5980 C   0  0  0  0  0  0  0  0  0  0  0  0
   -5.3860    5.3140   -1.1870 C   0  0  0  0  0  0  0  0  0  0  0  0
   -5.0590    5.5560   -2.6580 C   0  0  2  0  0  0  0  0  0  0  0  0
   -4.1300    6.6410   -2.7510 O   0  0  0  0  0  0  0  0  0  0  0  0
   -6.3140    5.8670   -3.5210 C   0  0  0  0  0  0  0  0  0  0  0  0
   -7.1750    4.5880   -3.6670 C   0  0  0  0  0  0  0  0  0  0  0  0
   -5.8310    6.2300   -4.9520 C   0  0  0  0  0  0  0  0  0  0  0  0
   -8.3320    7.9350   -0.6760 C   0  0  1  0  0  0  0  0  0  0  0  0
   -7.3910    9.0800   -0.1910 C   0  0  0  0  0  0  0  0  0  0  0  0
   -9.0340    7.3620    0.6120 C   0  0  0  0  0  0  0  0  0  0  0  0
  -10.4110    6.6990    0.4150 C   0  0  0  0  0  0  0  0  0  0  0  0
  -11.3390    7.5960   -0.4090 C   0  0  2  0  0  0  0  0  0  0  0  0
  -11.5710    8.9170    0.4020 C   0  0  0  0  0  0  0  0  0  0  0  0
  -14.3882    5.3227    1.5663 H   0  0  0  0  0  0  0  0  0  0  0  0
  -15.2955    5.4555    0.0217 H   0  0  0  0  0  0  0  0  0  0  0  0
  -13.6071    4.8423    0.0217 H   0  0  0  0  0  0  0  0  0  0  0  0
  -13.3464    7.2947    1.2678 H   0  0  0  0  0  0  0  0  0  0  0  0
  -15.1589    7.8716   -1.0951 H   0  0  0  0  0  0  0  0  0  0  0  0
  -15.7718    7.7146    0.6206 H   0  0  0  0  0  0  0  0  0  0  0  0
  -14.8371    9.6683    1.2963 H   0  0  0  0  0  0  0  0  0  0  0  0
  -13.4824    9.5571    0.0963 H   0  0  0  0  0  0  0  0  0  0  0  0
  -15.9952   10.6386    0.1334 H   0  0  0  0  0  0  0  0  0  0  0  0
  -12.6074   11.0861   -0.9609 H   0  0  0  0  0  0  0  0  0  0  0  0
  -12.8663   10.2001   -2.5019 H   0  0  0  0  0  0  0  0  0  0  0  0
  -12.7742   11.9940   -2.5019 H   0  0  0  0  0  0  0  0  0  0  0  0
  -15.6163   13.0285   -1.3973 H   0  0  0  0  0  0  0  0  0  0  0  0
  -14.5723   12.9995   -2.8588 H   0  0  0  0  0  0  0  0  0  0  0  0
  -16.1419   12.1260   -2.8588 H   0  0  0  0  0  0  0  0  0  0  0  0
  -12.6341    5.9313   -0.9821 H   0  0  0  0  0  0  0  0  0  0  0  0
  -13.5941    7.2324   -2.7779 H   0  0  0  0  0  0  0  0  0  0  0  0
  -13.8963    8.6221   -1.7130 H   0  0  0  0  0  0  0  0  0  0  0  0
  -11.7858    8.4264   -3.6311 H   0  0  0  0  0  0  0  0  0  0  0  0
  -11.8414    9.6272   -2.3434 H   0  0  0  0  0  0  0  0  0  0  0  0
  -10.3821    5.6399   -1.9629 H   0  0  0  0  0  0  0  0  0  0  0  0
  -11.3907    6.3174   -3.2859 H   0  0  0  0  0  0  0  0  0  0  0  0
   -9.6139    6.5813   -3.2859 H   0  0  0  0  0  0  0  0  0  0  0  0
   -9.6967    9.5361   -1.2257 H   0  0  0  0  0  0  0  0  0  0  0  0
   -9.4706    9.1311   -3.7598 H   0  0  0  0  0  0  0  0  0  0  0  0
   -8.1027    9.8931   -2.7912 H   0  0  0  0  0  0  0  0  0  0  0  0
   -7.4000    8.1023   -4.5912 H   0  0  0  0  0  0  0  0  0  0  0  0
   -8.1465    5.9132   -1.2826 H   0  0  0  0  0  0  0  0  0  0  0  0
   -5.5169    7.3893   -0.6473 H   0  0  0  0  0  0  0  0  0  0  0  0
   -6.4138    6.2386    0.4399 H   0  0  0  0  0  0  0  0  0  0  0  0
   -4.4487    5.1790   -0.6273 H   0  0  0  0  0  0  0  0  0  0  0  0
   -6.0129    4.4134   -1.1101 H   0  0  0  0  0  0  0  0  0  0  0  0
   -4.6261    4.6270   -3.0574 H   0  0  0  0  0  0  0  0  0  0  0  0
   -3.6320    6.6740   -1.9170 H   0  0  0  0  0  0  0  0  0  0  0  0
   -7.4334    4.2041   -2.6691 H   0  0  0  0  0  0  0  0  0  0  0  0
   -8.0966    4.8273   -4.2178 H   0  0  0  0  0  0  0  0  0  0  0  0
   -6.6065    3.8242   -4.2178 H   0  0  0  0  0  0  0  0  0  0  0  0
   -4.9532    6.8897   -4.8864 H   0  0  0  0  0  0  0  0  0  0  0  0
   -5.5593    5.3107   -5.4915 H   0  0  0  0  0  0  0  0  0  0  0  0
   -6.6385    6.7467   -5.4915 H   0  0  0  0  0  0  0  0  0  0  0  0
   -7.3745    9.1000    0.9087 H   0  0  0  0  0  0  0  0  0  0  0  0
   -6.3735    8.9036   -0.5698 H   0  0  0  0  0  0  0  0  0  0  0  0
   -7.7612   10.0441   -0.5698 H   0  0  0  0  0  0  0  0  0  0  0  0
   -8.3620    6.6097    1.0507 H   0  0  0  0  0  0  0  0  0  0  0  0
   -9.2243    8.2375    1.2502 H   0  0  0  0  0  0  0  0  0  0  0  0
  -10.2774    5.7413   -0.1094 H   0  0  0  0  0  0  0  0  0  0  0  0
  -10.8666    6.5370    1.4030 H   0  0  0  0  0  0  0  0  0  0  0  0
  -11.5324    8.6975    1.4792 H   0  0  0  0  0  0  0  0  0  0  0  0
  -10.7871    9.6457    0.1480 H   0  0  0  0  0  0  0  0  0  0  0  0
  -12.5563    9.3349    0.1480 H   0  0  0  0  0  0  0  0  0  0  0  0
  1  2  1  0
  2  3  1  0
  3  4  1  0
  4  5  1  0
  5  6  1  0
  6  7  1  0
  7  8  1  0
  7  9  1  0
  2 10  1  0
 10 11  1  0
 11 12  1  0
 12 13  1  0
 13 14  1  6
 13 15  1  0
 15 16  1  0
 16 17  1  0
 17 18  2  0
 18 19  1  0
 19 20  1  0
 20 21  1  0
 21 22  1  0
 22 23  1  0
 22 24  1  0
 24 25  1  0
 24 26  1  0
 19 27  1  0
 27 28  1  1
 27 29  1  0
 29 30  1  0
 30 31  1  0
 31 32  1  1
  7  5  1  0
 31 10  1  0
 31 13  1  0
 27 15  1  0
 24 18  1  0
  1 33  1  0
  1 34  1  0
  1 35  1  0
  2 36  1  1
  3 37  1  0
  3 38  1  0
  4 39  1  0
  4 40  1  0
  5 41  1  1
  8 42  1  0
  8 43  1  0
  8 44  1  0
  9 45  1  0
  9 46  1  0
  9 47  1  0
 10 48  1  6
 11 49  1  0
 11 50  1  0
 12 51  1  0
 12 52  1  0
 14 53  1  0
 14 54  1  0
 14 55  1  0
 15 56  1  1
 16 57  1  0
 16 58  1  0
 17 59  1  0
 19 60  1  6
 20 61  1  0
 20 62  1  0
 21 63  1  0
 21 64  1  0
 22 65  1  6
 23 66  1  0
 25 67  1  0
 25 68  1  0
 25 69  1  0
 26 70  1  0
 26 71  1  0
 26 72  1  0
 28 73  1  0
 28 74  1  0
 28 75  1  0
 29 76  1  0
 29 77  1  0
 30 78  1  0
 30 79  1  0
 32 80  1  0
 32 81  1  0
 32 82  1  0
M  END
>  <meeko>  (19) 
{"is_sidechain": [false], "intermolecular_energy": 2.731, "internal_energy": -0.839}

$$$$
