EPH_relaxed_0001_pdb2pqr_Repair_227_r2_0001_out
     RDKit          3D

 82 86  0  0  0  0  0  0  0  0999 V2000
   -1.7030    8.5840   -1.8630 C   0  0  0  0  0  0  0  0  0  0  0  0
   -2.0870    9.1110   -0.4770 C   0  0  2  0  0  0  0  0  0  0  0  0
   -3.5810    9.4830   -0.3900 C   0  0  0  0  0  0  0  0  0  0  0  0
   -4.5070    8.2740   -0.2290 C   0  0  0  0  0  0  0  0  0  0  0  0
   -5.2010    7.9330   -1.5130 C   0  0  2  0  0  0  0  0  0  0  0  0
   -6.3530    8.7360   -1.8030 O   0  0  0  0  0  0  0  0  0  0  0  0
   -6.5950    7.3370   -1.5780 C   0  0  0  0  0  0  0  0  0  0  0  0
   -7.3780    7.0470   -0.3360 C   0  0  0  0  0  0  0  0  0  0  0  0
   -6.9970    6.5900   -2.8110 C   0  0  0  0  0  0  0  0  0  0  0  0
   -1.2280   10.3200   -0.1250 C   0  0  1  0  0  0  0  0  0  0  0  0
   -0.1980   10.0150    0.9960 C   0  0  0  0  0  0  0  0  0  0  0  0
    1.0720   10.8430    0.6730 C   0  0  0  0  0  0  0  0  0  0  0  0
    0.6210   11.8390   -0.4210 C   0  0  1  0  0  0  0  0  0  0  0  0
   -0.0870   12.9940    0.3550 C   0  0  0  0  0  0  0  0  0  0  0  0
    1.7420   12.3820   -1.3660 C   0  0  2  0  0  0  0  0  0  0  0  0
    2.8440   13.1980   -0.6700 C   0  0  0  0  0  0  0  0  0  0  0  0
    2.5930   14.6680   -0.5860 C   0  0  0  0  0  0  0  0  0  0  0  0
    1.6720   15.3450   -1.2960 C   0  0  0  0  0  0  0  0  0  0  0  0
    0.8280   14.6410   -2.3670 C   0  0  1  0  0  0  0  0  0  0  0  0
    0.8030   15.5040   -3.6560 C   0  0  0  0  0  0  0  0  0  0  0  0
    0.3390   16.9330   -3.3940 C   0  0  0  0  0  0  0  0  0  0  0  0
    1.2370   17.6190   -2.3680 C   0  0  2  0  0  0  0  0  0  0  0  0
    2.5400   17.7880   -2.9350 O   0  0  0  0  0  0  0  0  0  0  0  0
    1.3470   16.8360   -1.0300 C   0  0  0  0  0  0  0  0  0  0  0  0
    0.0000   16.9120   -0.2700 C   0  0  0  0  0  0  0  0  0  0  0  0
    2.3910   17.5600   -0.1370 C   0  0  0  0  0  0  0  0  0  0  0  0
    1.2000   13.1230   -2.6550 C   0  0  1  0  0  0  0  0  0  0  0  0
    2.3350   13.0470   -3.7220 C   0  0  0  0  0  0  0  0  0  0  0  0
   -0.0480   12.3980   -3.2820 C   0  0  0  0  0  0  0  0  0  0  0  0
   -1.0590   11.7780   -2.2980 C   0  0  0  0  0  0  0  0  0  0  0  0
   -0.3460   10.9180   -1.2500 C   0  0  2  0  0  0  0  0  0  0  0  0
    0.3570    9.7350   -1.9990 C   0  0  0  0  0  0  0  0  0  0  0  0
   -1.0584    7.6994   -1.7533 H   0  0  0  0  0  0  0  0  0  0  0  0
   -2.6133    8.3081   -2.4155 H   0  0  0  0  0  0  0  0  0  0  0  0
   -1.1615    9.3660   -2.4155 H   0  0  0  0  0  0  0  0  0  0  0  0
   -1.9059    8.3023    0.2464 H   0  0  0  0  0  0  0  0  0  0  0  0
   -3.7238   10.1476    0.4748 H   0  0  0  0  0  0  0  0  0  0  0  0
   -3.8477    9.9685   -1.3403 H   0  0  0  0  0  0  0  0  0  0  0  0
   -3.9103    7.4084    0.0946 H   0  0  0  0  0  0  0  0  0  0  0  0
   -5.2733    8.5259    0.5188 H   0  0  0  0  0  0  0  0  0  0  0  0
   -4.2487    7.6344   -1.9756 H   0  0  0  0  0  0  0  0  0  0  0  0
   -6.7627    7.2749    0.5469 H   0  0  0  0  0  0  0  0  0  0  0  0
   -8.2853    7.6687   -0.3210 H   0  0  0  0  0  0  0  0  0  0  0  0
   -7.6614    5.9843   -0.3210 H   0  0  0  0  0  0  0  0  0  0  0  0
   -7.5004    5.6546   -2.5252 H   0  0  0  0  0  0  0  0  0  0  0  0
   -7.6839    7.2088   -3.4070 H   0  0  0  0  0  0  0  0  0  0  0  0
   -6.1021    6.3576   -3.4070 H   0  0  0  0  0  0  0  0  0  0  0  0
   -2.0183   11.0331    0.1525 H   0  0  0  0  0  0  0  0  0  0  0  0
   -0.6043   10.3106    1.9745 H   0  0  0  0  0  0  0  0  0  0  0  0
    0.0316    8.9401    1.0399 H   0  0  0  0  0  0  0  0  0  0  0  0
    1.4228   11.3803    1.5664 H   0  0  0  0  0  0  0  0  0  0  0  0
    1.9090   10.2107    0.3419 H   0  0  0  0  0  0  0  0  0  0  0  0
    0.0161   12.8258    1.4372 H   0  0  0  0  0  0  0  0  0  0  0  0
    0.3778   13.9544    0.0873 H   0  0  0  0  0  0  0  0  0  0  0  0
   -1.1537   13.0156    0.0873 H   0  0  0  0  0  0  0  0  0  0  0  0
    2.2285   11.4574   -1.7101 H   0  0  0  0  0  0  0  0  0  0  0  0
    2.9561   12.8133    0.3544 H   0  0  0  0  0  0  0  0  0  0  0  0
    3.7468   13.0783   -1.2869 H   0  0  0  0  0  0  0  0  0  0  0  0
    3.2132   15.2457    0.1152 H   0  0  0  0  0  0  0  0  0  0  0  0
   -0.1875   14.5619   -1.9516 H   0  0  0  0  0  0  0  0  0  0  0  0
    1.8177   15.5348   -4.0795 H   0  0  0  0  0  0  0  0  0  0  0  0
    0.0874   15.0430   -4.3527 H   0  0  0  0  0  0  0  0  0  0  0  0
    0.3704   17.5001   -4.3361 H   0  0  0  0  0  0  0  0  0  0  0  0
   -0.6866   16.9019   -2.9976 H   0  0  0  0  0  0  0  0  0  0  0  0
    0.7801   18.5901   -2.1267 H   0  0  0  0  0  0  0  0  0  0  0  0
    2.9170   16.9030   -3.0750 H   0  0  0  0  0  0  0  0  0  0  0  0
    0.1892   16.9013    0.8135 H   0  0  0  0  0  0  0  0  0  0  0  0
   -0.5225   17.8411   -0.5418 H   0  0  0  0  0  0  0  0  0  0  0  0
   -0.6237   16.0476   -0.5418 H   0  0  0  0  0  0  0  0  0  0  0  0
    2.1474   17.3911    0.9223 H   0  0  0  0  0  0  0  0  0  0  0  0
    3.3944   17.1628   -0.3504 H   0  0  0  0  0  0  0  0  0  0  0  0
    2.3707   18.6389   -0.3504 H   0  0  0  0  0  0  0  0  0  0  0  0
    3.3098   12.9817   -3.2164 H   0  0  0  0  0  0  0  0  0  0  0  0
    2.1879   12.1567   -4.3511 H   0  0  0  0  0  0  0  0  0  0  0  0
    2.3079   13.9490   -4.3511 H   0  0  0  0  0  0  0  0  0  0  0  0
   -0.5885   13.1354   -3.8937 H   0  0  0  0  0  0  0  0  0  0  0  0
    0.3657   11.5473   -3.8434 H   0  0  0  0  0  0  0  0  0  0  0  0
   -1.6072   12.5846   -1.7893 H   0  0  0  0  0  0  0  0  0  0  0  0
   -1.7528   11.1388   -2.8637 H   0  0  0  0  0  0  0  0  0  0  0  0
    0.7748    9.0319   -1.2634 H   0  0  0  0  0  0  0  0  0  0  0  0
   -0.3772    9.2124   -2.6297 H   0  0  0  0  0  0  0  0  0  0  0  0
    1.1670   10.1301   -2.6297 H   0  0  0  0  0  0  0  0  0  0  0  0
  1  2  1  0
  2  3  1  0
  3  4  1  0
  4  5  1  0
  5  6  1  0
  6  7  1  0
  7  8  1  0
  7  9  1  0
  2 10  1  0
 10 11  1  0
 11 12  1  0
 12 13  1  0
 13 14  1  1
 13 15  1  0
 15 16  1  0
 16 17  1  0
 17 18  2  0
 18 19  1  0
 19 20  1  0
 20 21  1  0
 21 22  1  0
 22 23  1  0
 22 24  1  0
 24 25  1  0
 24 26  1  0
 19 27  1  0
 27 28  1  6
 27 29  1  0
 29 30  1  0
 30 31  1  0
 31 32  1  6
  7  5  1  0
 31 10  1  0
 31 13  1  0
 27 15  1  0
 24 18  1  0
  1 33  1  0
  1 34  1  0
  1 35  1  0
  2 36  1  1
  3 37  1  0
  3 38  1  0
  4 39  1  0
  4 40  1  0
  5 41  1  6
  8 42  1  0
  8 43  1  0
  8 44  1  0
  9 45  1  0
  9 46  1  0
  9 47  1  0
 10 48  1  1
 11 49  1  0
 11 50  1  0
 12 51  1  0
 12 52  1  0
 14 53  1  0
 14 54  1  0
 14 55  1  0
 15 56  1  6
 16 57  1  0
 16 58  1  0
 17 59  1  0
 19 60  1  1
 20 61  1  0
 20 62  1  0
 21 63  1  0
 21 64  1  0
 22 65  1  1
 23 66  1  0
 25 67  1  0
 25 68  1  0
 25 69  1  0
 26 70  1  0
 26 71  1  0
 26 72  1  0
 28 73  1  0
 28 74  1  0
 28 75  1  0
 29 76  1  0
 29 77  1  0
 30 78  1  0
 30 79  1  0
 32 80  1  0
 32 81  1  0
 32 82  1  0
M  END
>  <meeko>  (1) 
{"is_sidechain": [false], "intermolecular_energy": 2.731, "internal_energy": -0.839}

$$$$
EPH_relaxed_0001_pdb2pqr_Repair_227_r2_0001_out
     RDKit          3D

 82 86  0  0  0  0  0  0  0  0999 V2000
    2.0240   19.6210   -0.6790 C   0  0  0  0  0  0  0  0  0  0  0  0
    2.4000   18.4230    0.1980 C   0  0  2  0  0  0  0  0  0  0  0  0
    3.8500   17.9590   -0.0430 C   0  0  0  0  0  0  0  0  0  0  0  0
    4.8000   18.2810    1.1130 C   0  0  0  0  0  0  0  0  0  0  0  0
    4.1050   19.0290    2.2100 C   0  0  2  0  0  0  0  0  0  0  0  0
    4.7990   20.1940    2.6740 O   0  0  0  0  0  0  0  0  0  0  0  0
    4.6420   19.1300    3.6250 C   0  0  0  0  0  0  0  0  0  0  0  0
    5.9270   18.4720    4.0210 C   0  0  0  0  0  0  0  0  0  0  0  0
    3.6860   19.4470    4.7330 C   0  0  0  0  0  0  0  0  0  0  0  0
    1.4350   17.2710   -0.0550 C   0  0  1  0  0  0  0  0  0  0  0  0
    0.1340   17.7260   -0.7680 C   0  0  0  0  0  0  0  0  0  0  0  0
   -0.2880   16.5700   -1.7100 C   0  0  0  0  0  0  0  0  0  0  0  0
    0.5820   15.3700   -1.2690 C   0  0  1  0  0  0  0  0  0  0  0  0
   -0.1470   14.7850   -0.0180 C   0  0  0  0  0  0  0  0  0  0  0  0
    0.8440   14.2720   -2.3500 C   0  0  2  0  0  0  0  0  0  0  0  0
   -0.4120   13.5440   -2.8600 C   0  0  0  0  0  0  0  0  0  0  0  0
   -0.7860   12.3120   -2.1040 C   0  0  0  0  0  0  0  0  0  0  0  0
    0.0090   11.6510   -1.2430 C   0  0  0  0  0  0  0  0  0  0  0  0
    1.4670   12.0770   -1.0310 C   0  0  1  0  0  0  0  0  0  0  0  0
    2.3840   10.8270   -1.0720 C   0  0  0  0  0  0  0  0  0  0  0  0
    1.9440    9.7460   -0.0890 C   0  0  0  0  0  0  0  0  0  0  0  0
    0.5090    9.3070   -0.3690 C   0  0  2  0  0  0  0  0  0  0  0  0
    0.4690    8.6430   -1.6360 O   0  0  0  0  0  0  0  0  0  0  0  0
   -0.5050   10.4850   -0.3630 C   0  0  0  0  0  0  0  0  0  0  0  0
   -0.6850   11.0100    1.0830 C   0  0  0  0  0  0  0  0  0  0  0  0
   -1.8880    9.9270   -0.7970 C   0  0  0  0  0  0  0  0  0  0  0  0
    1.9900   13.2480   -1.9700 C   0  0  1  0  0  0  0  0  0  0  0  0
    2.5230   12.6580   -3.3110 C   0  0  0  0  0  0  0  0  0  0  0  0
    3.2160   13.9530   -1.2780 C   0  0  0  0  0  0  0  0  0  0  0  0
    2.8980   15.1100   -0.3110 C   0  0  0  0  0  0  0  0  0  0  0  0
    1.9320   16.1110   -0.9530 C   0  0  2  0  0  0  0  0  0  0  0  0
    2.6470   16.7320   -2.2010 C   0  0  0  0  0  0  0  0  0  0  0  0
    1.7562   20.4744   -0.0387 H   0  0  0  0  0  0  0  0  0  0  0  0
    2.8798   19.8935   -1.3141 H   0  0  0  0  0  0  0  0  0  0  0  0
    1.1660   19.3556   -1.3141 H   0  0  0  0  0  0  0  0  0  0  0  0
    2.3273   18.7451    1.2473 H   0  0  0  0  0  0  0  0  0  0  0  0
    3.8451   16.8696   -0.1951 H   0  0  0  0  0  0  0  0  0  0  0  0
    4.2195   18.5045   -0.9238 H   0  0  0  0  0  0  0  0  0  0  0  0
    5.1980   17.3398    1.5200 H   0  0  0  0  0  0  0  0  0  0  0  0
    5.6097   18.9162    0.7245 H   0  0  0  0  0  0  0  0  0  0  0  0
    3.1202   18.7413    1.8132 H   0  0  0  0  0  0  0  0  0  0  0  0
    5.9975   18.4359    5.1181 H   0  0  0  0  0  0  0  0  0  0  0  0
    5.9545   17.4489    3.6179 H   0  0  0  0  0  0  0  0  0  0  0  0
    6.7732   19.0477    3.6179 H   0  0  0  0  0  0  0  0  0  0  0  0
    4.1803   19.2831    5.7019 H   0  0  0  0  0  0  0  0  0  0  0  0
    3.3704   20.4979    4.6555 H   0  0  0  0  0  0  0  0  0  0  0  0
    2.8050   18.7929    4.6555 H   0  0  0  0  0  0  0  0  0  0  0  0
    1.2982   16.9161    0.9772 H   0  0  0  0  0  0  0  0  0  0  0  0
   -0.6562   17.9187   -0.0274 H   0  0  0  0  0  0  0  0  0  0  0  0
    0.2978   18.6556   -1.3328 H   0  0  0  0  0  0  0  0  0  0  0  0
   -1.3568   16.3403   -1.5881 H   0  0  0  0  0  0  0  0  0  0  0  0
   -0.1435   16.8225   -2.7708 H   0  0  0  0  0  0  0  0  0  0  0  0
    0.3298   15.1676    0.8965 H   0  0  0  0  0  0  0  0  0  0  0  0
   -1.2043   15.0881   -0.0346 H   0  0  0  0  0  0  0  0  0  0  0  0
   -0.0800   13.6872   -0.0346 H   0  0  0  0  0  0  0  0  0  0  0  0
    1.2126   14.8637   -3.2009 H   0  0  0  0  0  0  0  0  0  0  0  0
   -1.2573   14.2458   -2.8057 H   0  0  0  0  0  0  0  0  0  0  0  0
   -0.1783   13.2142   -3.8830 H   0  0  0  0  0  0  0  0  0  0  0  0
   -1.7975   11.9106   -2.2646 H   0  0  0  0  0  0  0  0  0  0  0  0
    1.5071   12.5359   -0.0321 H   0  0  0  0  0  0  0  0  0  0  0  0
    2.3639   10.4082   -2.0889 H   0  0  0  0  0  0  0  0  0  0  0  0
    3.3969   11.1464   -0.7856 H   0  0  0  0  0  0  0  0  0  0  0  0
    2.6119    8.8774   -0.1861 H   0  0  0  0  0  0  0  0  0  0  0  0
    1.9936   10.1565    0.9303 H   0  0  0  0  0  0  0  0  0  0  0  0
    0.2067    8.6301    0.4437 H   0  0  0  0  0  0  0  0  0  0  0  0
    0.4670    9.3280   -2.3260 H   0  0  0  0  0  0  0  0  0  0  0  0
   -0.4136   10.2184    1.7969 H   0  0  0  0  0  0  0  0  0  0  0  0
   -0.0350   11.8835    1.2395 H   0  0  0  0  0  0  0  0  0  0  0  0
   -1.7342   11.3009    1.2395 H   0  0  0  0  0  0  0  0  0  0  0  0
   -2.4832    9.6868    0.0963 H   0  0  0  0  0  0  0  0  0  0  0  0
   -2.4162   10.6824   -1.3973 H   0  0  0  0  0  0  0  0  0  0  0  0
   -1.7441    9.0166   -1.3973 H   0  0  0  0  0  0  0  0  0  0  0  0
    3.2464   11.8573   -3.0975 H   0  0  0  0  0  0  0  0  0  0  0  0
    1.6829   12.2481   -3.8909 H   0  0  0  0  0  0  0  0  0  0  0  0
    3.0158   13.4523   -3.8909 H   0  0  0  0  0  0  0  0  0  0  0  0
    3.7638   13.1863   -0.7106 H   0  0  0  0  0  0  0  0  0  0  0  0
    3.7845   14.4130   -2.0997 H   0  0  0  0  0  0  0  0  0  0  0  0
    2.4388   14.7009    0.6010 H   0  0  0  0  0  0  0  0  0  0  0  0
    3.8352   15.6326   -0.0689 H   0  0  0  0  0  0  0  0  0  0  0  0
    3.4381   17.4191   -1.8662 H   0  0  0  0  0  0  0  0  0  0  0  0
    3.0914   15.9284   -2.8066 H   0  0  0  0  0  0  0  0  0  0  0  0
    1.9135   17.2846   -2.8066 H   0  0  0  0  0  0  0  0  0  0  0  0
  1  2  1  0
  2  3  1  0
  3  4  1  0
  4  5  1  0
  5  6  1  0
  6  7  1  0
  7  8  1  0
  7  9  1  0
  2 10  1  0
 10 11  1  0
 11 12  1  0
 12 13  1  0
 13 14  1  1
 13 15  1  0
 15 16  1  0
 16 17  1  0
 17 18  2  0
 18 19  1  0
 19 20  1  0
 20 21  1  0
 21 22  1  0
 22 23  1  0
 22 24  1  0
 24 25  1  0
 24 26  1  0
 19 27  1  0
 27 28  1  6
 27 29  1  0
 29 30  1  0
 30 31  1  0
 31 32  1  6
  7  5  1  0
 31 10  1  0
 31 13  1  0
 27 15  1  0
 24 18  1  0
  1 33  1  0
  1 34  1  0
  1 35  1  0
  2 36  1  1
  3 37  1  0
  3 38  1  0
  4 39  1  0
  4 40  1  0
  5 41  1  1
  8 42  1  0
  8 43  1  0
  8 44  1  0
  9 45  1  0
  9 46  1  0
  9 47  1  0
 10 48  1  1
 11 49  1  0
 11 50  1  0
 12 51  1  0
 12 52  1  0
 14 53  1  0
 14 54  1  0
 14 55  1  0
 15 56  1  6
 16 57  1  0
 16 58  1  0
 17 59  1  0
 19 60  1  1
 20 61  1  0
 20 62  1  0
 21 63  1  0
 21 64  1  0
 22 65  1  1
 23 66  1  0
 25 67  1  0
 25 68  1  0
 25 69  1  0
 26 70  1  0
 26 71  1  0
 26 72  1  0
 28 73  1  0
 28 74  1  0
 28 75  1  0
 29 76  1  0
 29 77  1  0
 30 78  1  0
 30 79  1  0
 32 80  1  0
 32 81  1  0
 32 82  1  0
M  END
>  <meeko>  (2) 
{"is_sidechain": [false], "intermolecular_energy": 2.731, "internal_energy": -0.839}

$$$$
EPH_relaxed_0001_pdb2pqr_Repair_227_r2_0001_out
     RDKit          3D

 82 86  0  0  0  0  0  0  0  0999 V2000
    2.1760   18.0210   -2.6140 C   0  0  0  0  0  0  0  0  0  0  0  0
    0.6540   17.8570   -2.6500 C   0  0  2  0  0  0  0  0  0  0  0  0
   -0.0110   18.3190   -1.3380 C   0  0  0  0  0  0  0  0  0  0  0  0
    0.7540   17.9000   -0.0800 C   0  0  0  0  0  0  0  0  0  0  0  0
    1.2540   19.0880    0.6860 C   0  0  2  0  0  0  0  0  0  0  0  0
    2.1190   19.9570   -0.0560 O   0  0  0  0  0  0  0  0  0  0  0  0
    2.7090   19.2840    1.0680 C   0  0  0  0  0  0  0  0  0  0  0  0
    3.7560   18.2810    0.6970 C   0  0  0  0  0  0  0  0  0  0  0  0
    3.0310   20.1930    2.2140 C   0  0  0  0  0  0  0  0  0  0  0  0
    0.2940   16.4040   -2.9330 C   0  0  1  0  0  0  0  0  0  0  0  0
    0.3780   16.0500   -4.4420 C   0  0  0  0  0  0  0  0  0  0  0  0
    0.8740   14.5840   -4.5310 C   0  0  0  0  0  0  0  0  0  0  0  0
    0.7410   14.0390   -3.0900 C   0  0  1  0  0  0  0  0  0  0  0  0
   -0.7640   13.6530   -2.9440 C   0  0  0  0  0  0  0  0  0  0  0  0
    1.6810   12.8480   -2.7120 C   0  0  2  0  0  0  0  0  0  0  0  0
    1.4640   11.5620   -3.5270 C   0  0  0  0  0  0  0  0  0  0  0  0
    0.4790   10.6000   -2.9500 C   0  0  0  0  0  0  0  0  0  0  0  0
    0.0080   10.6240   -1.6890 C   0  0  0  0  0  0  0  0  0  0  0  0
    0.5440   11.6360   -0.6680 C   0  0  1  0  0  0  0  0  0  0  0  0
    0.8510   10.9100    0.6680 C   0  0  0  0  0  0  0  0  0  0  0  0
   -0.3470   10.1250    1.1960 C   0  0  0  0  0  0  0  0  0  0  0  0
   -0.8130    9.0900    0.1760 C   0  0  2  0  0  0  0  0  0  0  0  0
    0.2030    8.0930    0.0330 O   0  0  0  0  0  0  0  0  0  0  0  0
   -1.1430    9.7040   -1.2130 C   0  0  0  0  0  0  0  0  0  0  0  0
   -2.4340   10.5530   -1.1140 C   0  0  0  0  0  0  0  0  0  0  0  0
   -1.4640    8.5380   -2.1860 C   0  0  0  0  0  0  0  0  0  0  0  0
    1.7510   12.5450   -1.1600 C   0  0  1  0  0  0  0  0  0  0  0  0
    3.1050   11.8130   -0.9100 C   0  0  0  0  0  0  0  0  0  0  0  0
    1.7910   13.8600   -0.2940 C   0  0  0  0  0  0  0  0  0  0  0  0
    0.9330   15.0410   -0.7860 C   0  0  0  0  0  0  0  0  0  0  0  0
    1.1730   15.3120   -2.2740 C   0  0  2  0  0  0  0  0  0  0  0  0
    2.6750   15.7240   -2.4490 C   0  0  0  0  0  0  0  0  0  0  0  0
    2.5162   18.0577   -1.5686 H   0  0  0  0  0  0  0  0  0  0  0  0
    2.6488   17.1686   -3.1238 H   0  0  0  0  0  0  0  0  0  0  0  0
    2.4564   18.9546   -3.1238 H   0  0  0  0  0  0  0  0  0  0  0  0
    0.2713   18.4984   -3.4576 H   0  0  0  0  0  0  0  0  0  0  0  0
   -0.0816   19.4166   -1.3521 H   0  0  0  0  0  0  0  0  0  0  0  0
   -0.9980   17.8357   -1.2901 H   0  0  0  0  0  0  0  0  0  0  0  0
    0.0835   17.3151    0.5668 H   0  0  0  0  0  0  0  0  0  0  0  0
    1.6231   17.3014   -0.3904 H   0  0  0  0  0  0  0  0  0  0  0  0
    0.3248   19.1309    1.2732 H   0  0  0  0  0  0  0  0  0  0  0  0
    4.1982   17.8574    1.6108 H   0  0  0  0  0  0  0  0  0  0  0  0
    3.2984   17.4756    0.1037 H   0  0  0  0  0  0  0  0  0  0  0  0
    4.5410   18.7728    0.1037 H   0  0  0  0  0  0  0  0  0  0  0  0
    2.8449   19.6676    3.1623 H   0  0  0  0  0  0  0  0  0  0  0  0
    4.0889   20.4896    2.1607 H   0  0  0  0  0  0  0  0  0  0  0  0
    2.3957   21.0894    2.1607 H   0  0  0  0  0  0  0  0  0  0  0  0
   -0.7197   16.3795   -2.5065 H   0  0  0  0  0  0  0  0  0  0  0  0
   -0.6137   16.1433   -4.9087 H   0  0  0  0  0  0  0  0  0  0  0  0
    1.0620   16.7309   -4.9697 H   0  0  0  0  0  0  0  0  0  0  0  0
    0.2481   14.0037   -5.2249 H   0  0  0  0  0  0  0  0  0  0  0  0
    1.9044   14.5145   -4.9098 H   0  0  0  0  0  0  0  0  0  0  0  0
   -1.0236   13.5864   -1.8772 H   0  0  0  0  0  0  0  0  0  0  0  0
   -1.3877   14.4202   -3.4260 H   0  0  0  0  0  0  0  0  0  0  0  0
   -0.9415   12.6803   -3.4260 H   0  0  0  0  0  0  0  0  0  0  0  0
    2.6710   13.2252   -3.0081 H   0  0  0  0  0  0  0  0  0  0  0  0
    1.1115   11.8497   -4.5285 H   0  0  0  0  0  0  0  0  0  0  0  0
    2.4318   11.0392   -3.5339 H   0  0  0  0  0  0  0  0  0  0  0  0
    0.1064    9.8039   -3.6113 H   0  0  0  0  0  0  0  0  0  0  0  0
   -0.2604   12.3710   -0.5174 H   0  0  0  0  0  0  0  0  0  0  0  0
    1.6862   10.2126    0.5066 H   0  0  0  0  0  0  0  0  0  0  0  0
    1.1030   11.6773    1.4149 H   0  0  0  0  0  0  0  0  0  0  0  0
   -0.0594    9.6109    2.1250 H   0  0  0  0  0  0  0  0  0  0  0  0
   -1.1718   10.8279    1.3850 H   0  0  0  0  0  0  0  0  0  0  0  0
   -1.7481    8.6517    0.5548 H   0  0  0  0  0  0  0  0  0  0  0  0
    0.0000    7.5790   -0.7660 H   0  0  0  0  0  0  0  0  0  0  0  0
   -2.6843   10.7176   -0.0556 H   0  0  0  0  0  0  0  0  0  0  0  0
   -2.2739   11.5227   -1.6080 H   0  0  0  0  0  0  0  0  0  0  0  0
   -3.2609   10.0219   -1.6080 H   0  0  0  0  0  0  0  0  0  0  0  0
   -1.7124    7.6358   -1.6078 H   0  0  0  0  0  0  0  0  0  0  0  0
   -2.3195    8.8143   -2.8199 H   0  0  0  0  0  0  0  0  0  0  0  0
   -0.5876    8.3376   -2.8199 H   0  0  0  0  0  0  0  0  0  0  0  0
    3.2771   11.7200    0.1725 H   0  0  0  0  0  0  0  0  0  0  0  0
    3.0694   10.8113   -1.3631 H   0  0  0  0  0  0  0  0  0  0  0  0
    3.9236   12.3914   -1.3631 H   0  0  0  0  0  0  0  0  0  0  0  0
    1.4515   13.6014    0.7198 H   0  0  0  0  0  0  0  0  0  0  0  0
    2.8307   14.2139   -0.3552 H   0  0  0  0  0  0  0  0  0  0  0  0
   -0.1296   14.8028   -0.6307 H   0  0  0  0  0  0  0  0  0  0  0  0
    1.2141   15.9392   -0.2166 H   0  0  0  0  0  0  0  0  0  0  0  0
    3.1381   15.8510   -1.4593 H   0  0  0  0  0  0  0  0  0  0  0  0
    3.2081   14.9389   -3.0052 H   0  0  0  0  0  0  0  0  0  0  0  0
    2.7330   16.6712   -3.0052 H   0  0  0  0  0  0  0  0  0  0  0  0
  1  2  1  0
  2  3  1  0
  3  4  1  0
  4  5  1  0
  5  6  1  0
  6  7  1  0
  7  8  1  0
  7  9  1  0
  2 10  1  0
 10 11  1  0
 11 12  1  0
 12 13  1  0
 13 14  1  1
 13 15  1  0
 15 16  1  0
 16 17  1  0
 17 18  2  0
 18 19  1  0
 19 20  1  0
 20 21  1  0
 21 22  1  0
 22 23  1  0
 22 24  1  0
 24 25  1  0
 24 26  1  0
 19 27  1  0
 27 28  1  6
 27 29  1  0
 29 30  1  0
 30 31  1  0
 31 32  1  1
  7  5  1  0
 31 10  1  0
 31 13  1  0
 27 15  1  0
 24 18  1  0
  1 33  1  0
  1 34  1  0
  1 35  1  0
  2 36  1  6
  3 37  1  0
  3 38  1  0
  4 39  1  0
  4 40  1  0
  5 41  1  1
  8 42  1  0
  8 43  1  0
  8 44  1  0
  9 45  1  0
  9 46  1  0
  9 47  1  0
 10 48  1  1
 11 49  1  0
 11 50  1  0
 12 51  1  0
 12 52  1  0
 14 53  1  0
 14 54  1  0
 14 55  1  0
 15 56  1  6
 16 57  1  0
 16 58  1  0
 17 59  1  0
 19 60  1  1
 20 61  1  0
 20 62  1  0
 21 63  1  0
 21 64  1  0
 22 65  1  1
 23 66  1  0
 25 67  1  0
 25 68  1  0
 25 69  1  0
 26 70  1  0
 26 71  1  0
 26 72  1  0
 28 73  1  0
 28 74  1  0
 28 75  1  0
 29 76  1  0
 29 77  1  0
 30 78  1  0
 30 79  1  0
 32 80  1  0
 32 81  1  0
 32 82  1  0
M  END
>  <meeko>  (3) 
{"is_sidechain": [false], "intermolecular_energy": 2.731, "internal_energy": -0.839}

$$$$
EPH_relaxed_0001_pdb2pqr_Repair_227_r2_0001_out
     RDKit          3D

 82 86  0  0  0  0  0  0  0  0999 V2000
    2.3620   18.0630   -2.6230 C   0  0  0  0  0  0  0  0  0  0  0  0
    1.0270   17.6890   -1.9710 C   0  0  2  0  0  0  0  0  0  0  0  0
    1.0890   17.7710   -0.4320 C   0  0  0  0  0  0  0  0  0  0  0  0
    0.6560   19.1270    0.1300 C   0  0  0  0  0  0  0  0  0  0  0  0
   -0.8220   19.1800    0.3720 C   0  0  2  0  0  0  0  0  0  0  0  0
   -1.5950   18.2910   -0.4450 O   0  0  0  0  0  0  0  0  0  0  0  0
   -1.8200   19.6950   -0.6490 C   0  0  0  0  0  0  0  0  0  0  0  0
   -1.3770   20.1940   -1.9890 C   0  0  0  0  0  0  0  0  0  0  0  0
   -3.1560   20.1680   -0.1680 C   0  0  0  0  0  0  0  0  0  0  0  0
    0.6130   16.2880   -2.4020 C   0  0  1  0  0  0  0  0  0  0  0  0
    0.7700   16.0610   -3.9290 C   0  0  0  0  0  0  0  0  0  0  0  0
    1.1960   14.5830   -4.1210 C   0  0  0  0  0  0  0  0  0  0  0  0
    0.9500   13.9240   -2.7430 C   0  0  1  0  0  0  0  0  0  0  0  0
   -0.5790   13.6110   -2.7160 C   0  0  0  0  0  0  0  0  0  0  0  0
    1.8050   12.6550   -2.4210 C   0  0  2  0  0  0  0  0  0  0  0  0
    1.5730   11.4580   -3.3590 C   0  0  0  0  0  0  0  0  0  0  0  0
    0.5080   10.5050   -2.9260 C   0  0  0  0  0  0  0  0  0  0  0  0
   -0.0360   10.4470   -1.6960 C   0  0  0  0  0  0  0  0  0  0  0  0
    0.4870   11.3360   -0.5600 C   0  0  1  0  0  0  0  0  0  0  0  0
    0.6770   10.4820    0.7200 C   0  0  0  0  0  0  0  0  0  0  0  0
   -0.5880    9.7220    1.1090 C   0  0  0  0  0  0  0  0  0  0  0  0
   -1.0430    8.8050   -0.0230 C   0  0  2  0  0  0  0  0  0  0  0  0
   -0.0710    7.7700   -0.1980 O   0  0  0  0  0  0  0  0  0  0  0  0
   -1.2580    9.5540   -1.3690 C   0  0  0  0  0  0  0  0  0  0  0  0
   -2.5090   10.4610   -1.2660 C   0  0  0  0  0  0  0  0  0  0  0  0
   -1.5770    8.4950   -2.4580 C   0  0  0  0  0  0  0  0  0  0  0  0
    1.7660   12.2160   -0.9020 C   0  0  1  0  0  0  0  0  0  0  0  0
    3.0640   11.3920   -0.6430 C   0  0  0  0  0  0  0  0  0  0  0  0
    1.8190   13.4470    0.0790 C   0  0  0  0  0  0  0  0  0  0  0  0
    1.0520   14.7120   -0.3520 C   0  0  0  0  0  0  0  0  0  0  0  0
    1.3950   15.0960   -1.7950 C   0  0  2  0  0  0  0  0  0  0  0  0
    2.9230   15.4380   -1.8480 C   0  0  0  0  0  0  0  0  0  0  0  0
    3.1065   18.2716   -1.8406 H   0  0  0  0  0  0  0  0  0  0  0  0
    2.7113   17.2281   -3.2483 H   0  0  0  0  0  0  0  0  0  0  0  0
    2.2267   18.9578   -3.2483 H   0  0  0  0  0  0  0  0  0  0  0  0
    0.2770   18.4188   -2.3101 H   0  0  0  0  0  0  0  0  0  0  0  0
    0.4286   16.9959   -0.0161 H   0  0  0  0  0  0  0  0  0  0  0  0
    2.1407   17.6250   -0.1445 H   0  0  0  0  0  0  0  0  0  0  0  0
    1.1796   19.3023    1.0814 H   0  0  0  0  0  0  0  0  0  0  0  0
    0.9107   19.9015   -0.6084 H   0  0  0  0  0  0  0  0  0  0  0  0
   -0.6628   19.4191    1.4338 H   0  0  0  0  0  0  0  0  0  0  0  0
   -0.6522   21.0105   -1.8549 H   0  0  0  0  0  0  0  0  0  0  0  0
   -0.9050   19.3728   -2.5484 H   0  0  0  0  0  0  0  0  0  0  0  0
   -2.2483   20.5654   -2.5484 H   0  0  0  0  0  0  0  0  0  0  0  0
   -3.1691   20.1726    0.9319 H   0  0  0  0  0  0  0  0  0  0  0  0
   -3.3407   21.1861   -0.5412 H   0  0  0  0  0  0  0  0  0  0  0  0
   -3.9402   19.4928   -0.5412 H   0  0  0  0  0  0  0  0  0  0  0  0
   -0.4244   16.2830   -2.0364 H   0  0  0  0  0  0  0  0  0  0  0  0
   -0.1858   16.2490   -4.4400 H   0  0  0  0  0  0  0  0  0  0  0  0
    1.5182   16.7458   -4.3548 H   0  0  0  0  0  0  0  0  0  0  0  0
    0.5841   14.1002   -4.8972 H   0  0  0  0  0  0  0  0  0  0  0  0
    2.2423   14.4894   -4.4474 H   0  0  0  0  0  0  0  0  0  0  0  0
   -0.9206   13.5411   -1.6727 H   0  0  0  0  0  0  0  0  0  0  0  0
   -1.1271   14.4156   -3.2281 H   0  0  0  0  0  0  0  0  0  0  0  0
   -0.7668   12.6558   -3.2281 H   0  0  0  0  0  0  0  0  0  0  0  0
    2.8288   13.0010   -2.6261 H   0  0  0  0  0  0  0  0  0  0  0  0
    1.2960   11.8504   -4.3486 H   0  0  0  0  0  0  0  0  0  0  0  0
    2.5121   10.8852   -3.3591 H   0  0  0  0  0  0  0  0  0  0  0  0
    0.1368    9.7902   -3.6752 H   0  0  0  0  0  0  0  0  0  0  0  0
   -0.2876   12.0979   -0.3883 H   0  0  0  0  0  0  0  0  0  0  0  0
    1.4843    9.7560    0.5430 H   0  0  0  0  0  0  0  0  0  0  0  0
    0.9224   11.1668    1.5451 H   0  0  0  0  0  0  0  0  0  0  0  0
   -0.3829    9.1154    2.0034 H   0  0  0  0  0  0  0  0  0  0  0  0
   -1.3865   10.4505    1.3133 H   0  0  0  0  0  0  0  0  0  0  0  0
   -2.0195    8.3874    0.2633 H   0  0  0  0  0  0  0  0  0  0  0  0
    0.5860    8.0900   -0.8390 H   0  0  0  0  0  0  0  0  0  0  0  0
   -2.7493   10.6353   -0.2068 H   0  0  0  0  0  0  0  0  0  0  0  0
   -2.3059   11.4231   -1.7590 H   0  0  0  0  0  0  0  0  0  0  0  0
   -3.3603    9.9689   -1.7590 H   0  0  0  0  0  0  0  0  0  0  0  0
   -1.8622    7.5481   -1.9763 H   0  0  0  0  0  0  0  0  0  0  0  0
   -2.4074    8.8522   -3.0848 H   0  0  0  0  0  0  0  0  0  0  0  0
   -0.6874    8.3341   -3.0848 H   0  0  0  0  0  0  0  0  0  0  0  0
    3.2238   11.2906    0.4406 H   0  0  0  0  0  0  0  0  0  0  0  0
    2.9606   10.3938   -1.0934 H   0  0  0  0  0  0  0  0  0  0  0  0
    3.9233   11.9103   -1.0934 H   0  0  0  0  0  0  0  0  0  0  0  0
    1.4065   13.1207    1.0451 H   0  0  0  0  0  0  0  0  0  0  0  0
    2.8768   13.7473    0.1073 H   0  0  0  0  0  0  0  0  0  0  0  0
   -0.0286   14.5205   -0.2777 H   0  0  0  0  0  0  0  0  0  0  0  0
    1.3424   15.5410    0.3101 H   0  0  0  0  0  0  0  0  0  0  0  0
    3.3148   15.5257   -0.8239 H   0  0  0  0  0  0  0  0  0  0  0  0
    3.4597   14.6377   -2.3787 H   0  0  0  0  0  0  0  0  0  0  0  0
    3.0673   16.3907   -2.3787 H   0  0  0  0  0  0  0  0  0  0  0  0
  1  2  1  0
  2  3  1  0
  3  4  1  0
  4  5  1  0
  5  6  1  0
  6  7  1  0
  7  8  1  0
  7  9  1  0
  2 10  1  0
 10 11  1  0
 11 12  1  0
 12 13  1  0
 13 14  1  1
 13 15  1  0
 15 16  1  0
 16 17  1  0
 17 18  2  0
 18 19  1  0
 19 20  1  0
 20 21  1  0
 21 22  1  0
 22 23  1  0
 22 24  1  0
 24 25  1  0
 24 26  1  0
 19 27  1  0
 27 28  1  1
 27 29  1  0
 29 30  1  0
 30 31  1  0
 31 32  1  1
  7  5  1  0
 31 10  1  0
 31 13  1  0
 27 15  1  0
 24 18  1  0
  1 33  1  0
  1 34  1  0
  1 35  1  0
  2 36  1  6
  3 37  1  0
  3 38  1  0
  4 39  1  0
  4 40  1  0
  5 41  1  1
  8 42  1  0
  8 43  1  0
  8 44  1  0
  9 45  1  0
  9 46  1  0
  9 47  1  0
 10 48  1  6
 11 49  1  0
 11 50  1  0
 12 51  1  0
 12 52  1  0
 14 53  1  0
 14 54  1  0
 14 55  1  0
 15 56  1  6
 16 57  1  0
 16 58  1  0
 17 59  1  0
 19 60  1  1
 20 61  1  0
 20 62  1  0
 21 63  1  0
 21 64  1  0
 22 65  1  1
 23 66  1  0
 25 67  1  0
 25 68  1  0
 25 69  1  0
 26 70  1  0
 26 71  1  0
 26 72  1  0
 28 73  1  0
 28 74  1  0
 28 75  1  0
 29 76  1  0
 29 77  1  0
 30 78  1  0
 30 79  1  0
 32 80  1  0
 32 81  1  0
 32 82  1  0
M  END
>  <meeko>  (4) 
{"is_sidechain": [false], "intermolecular_energy": 2.731, "internal_energy": -0.839}

$$$$
EPH_relaxed_0001_pdb2pqr_Repair_227_r2_0001_out
     RDKit          3D

 82 86  0  0  0  0  0  0  0  0999 V2000
   -3.4000    9.3120    0.5220 C   0  0  0  0  0  0  0  0  0  0  0  0
   -2.5730    9.6780   -0.7140 C   0  0  2  0  0  0  0  0  0  0  0  0
   -1.9070    8.4440   -1.3540 C   0  0  0  0  0  0  0  0  0  0  0  0
   -2.8280    7.6700   -2.3020 C   0  0  0  0  0  0  0  0  0  0  0  0
   -4.2640    7.7710   -1.8850 C   0  0  2  0  0  0  0  0  0  0  0  0
   -4.8070    6.5750   -1.3130 O   0  0  0  0  0  0  0  0  0  0  0  0
   -5.3860    7.0020   -2.5570 C   0  0  0  0  0  0  0  0  0  0  0  0
   -5.1210    6.0750   -3.7010 C   0  0  0  0  0  0  0  0  0  0  0  0
   -6.7850    7.5170   -2.4250 C   0  0  0  0  0  0  0  0  0  0  0  0
   -1.5130   10.7080   -0.3430 C   0  0  1  0  0  0  0  0  0  0  0  0
   -0.4110   10.1260    0.5820 C   0  0  0  0  0  0  0  0  0  0  0  0
    0.9170   10.8200    0.1870 C   0  0  0  0  0  0  0  0  0  0  0  0
    0.4870   12.0050   -0.7090 C   0  0  1  0  0  0  0  0  0  0  0  0
    0.0510   13.1250    0.2880 C   0  0  0  0  0  0  0  0  0  0  0  0
    1.5530   12.5230   -1.7290 C   0  0  2  0  0  0  0  0  0  0  0  0
    2.8370   13.0900   -1.0990 C   0  0  0  0  0  0  0  0  0  0  0  0
    2.8120   14.5550   -0.8100 C   0  0  0  0  0  0  0  0  0  0  0  0
    1.9200   15.4340   -1.3010 C   0  0  0  0  0  0  0  0  0  0  0  0
    0.8610   14.9950   -2.3210 C   0  0  1  0  0  0  0  0  0  0  0  0
    0.8070   16.0200   -3.4840 C   0  0  0  0  0  0  0  0  0  0  0  0
    0.5880   17.4490   -2.9950 C   0  0  0  0  0  0  0  0  0  0  0  0
    1.6920   17.8690   -2.0280 C   0  0  2  0  0  0  0  0  0  0  0  0
    2.9280   17.9450   -2.7450 O   0  0  0  0  0  0  0  0  0  0  0  0
    1.8480   16.9040   -0.8190 C   0  0  0  0  0  0  0  0  0  0  0  0
    0.6270   17.0480    0.1220 C   0  0  0  0  0  0  0  0  0  0  0  0
    3.0840   17.3620    0.0010 C   0  0  0  0  0  0  0  0  0  0  0  0
    0.9740   13.4950   -2.8350 C   0  0  1  0  0  0  0  0  0  0  0  0
    1.9490   13.4200   -4.0490 C   0  0  0  0  0  0  0  0  0  0  0  0
   -0.4330   13.0270   -3.3650 C   0  0  0  0  0  0  0  0  0  0  0  0
   -1.3970   12.4140   -2.3320 C   0  0  0  0  0  0  0  0  0  0  0  0
   -0.6960   11.3360   -1.5000 C   0  0  2  0  0  0  0  0  0  0  0  0
   -0.2650   10.1850   -2.4730 C   0  0  0  0  0  0  0  0  0  0  0  0
   -2.8326    9.5631    1.4303 H   0  0  0  0  0  0  0  0  0  0  0  0
   -4.3442    9.8763    0.5117 H   0  0  0  0  0  0  0  0  0  0  0  0
   -3.6172    8.2337    0.5117 H   0  0  0  0  0  0  0  0  0  0  0  0
   -3.2617   10.1041   -1.4584 H   0  0  0  0  0  0  0  0  0  0  0  0
   -1.0268    8.7797   -1.9220 H   0  0  0  0  0  0  0  0  0  0  0  0
   -1.6415    7.7604   -0.5342 H   0  0  0  0  0  0  0  0  0  0  0  0
   -2.7217    8.0810   -3.3168 H   0  0  0  0  0  0  0  0  0  0  0  0
   -2.5364    6.6097   -2.2736 H   0  0  0  0  0  0  0  0  0  0  0  0
   -4.1427    8.8368   -1.6415 H   0  0  0  0  0  0  0  0  0  0  0  0
   -4.8381    5.0853   -3.3130 H   0  0  0  0  0  0  0  0  0  0  0  0
   -6.0286    5.9822   -4.3155 H   0  0  0  0  0  0  0  0  0  0  0  0
   -4.3015    6.4759   -4.3155 H   0  0  0  0  0  0  0  0  0  0  0  0
   -7.0419    7.6116   -1.3596 H   0  0  0  0  0  0  0  0  0  0  0  0
   -6.8604    8.5018   -2.9092 H   0  0  0  0  0  0  0  0  0  0  0  0
   -7.4809    6.8161   -2.9092 H   0  0  0  0  0  0  0  0  0  0  0  0
   -2.1535   11.4712    0.1231 H   0  0  0  0  0  0  0  0  0  0  0  0
   -0.6500   10.3368    1.6348 H   0  0  0  0  0  0  0  0  0  0  0  0
   -0.3354    9.0346    0.4677 H   0  0  0  0  0  0  0  0  0  0  0  0
    1.4470   11.1813    1.0806 H   0  0  0  0  0  0  0  0  0  0  0  0
    1.6074   10.1364   -0.3287 H   0  0  0  0  0  0  0  0  0  0  0  0
    0.1888   12.7709    1.3203 H   0  0  0  0  0  0  0  0  0  0  0  0
    0.6655   14.0223    0.1230 H   0  0  0  0  0  0  0  0  0  0  0  0
   -1.0084   13.3707    0.1230 H   0  0  0  0  0  0  0  0  0  0  0  0
    1.8552   11.5989   -2.2435 H   0  0  0  0  0  0  0  0  0  0  0  0
    3.0138   12.5595   -0.1517 H   0  0  0  0  0  0  0  0  0  0  0  0
    3.6332   12.9399   -1.8430 H   0  0  0  0  0  0  0  0  0  0  0  0
    3.5892   14.9487   -0.1385 H   0  0  0  0  0  0  0  0  0  0  0  0
   -0.0979   14.9907   -1.7819 H   0  0  0  0  0  0  0  0  0  0  0  0
    1.7578   15.9779   -4.0356 H   0  0  0  0  0  0  0  0  0  0  0  0
   -0.0455   15.7523   -4.1256 H   0  0  0  0  0  0  0  0  0  0  0  0
    0.5882   18.1294   -3.8593 H   0  0  0  0  0  0  0  0  0  0  0  0
   -0.3769   17.4965   -2.4689 H   0  0  0  0  0  0  0  0  0  0  0  0
    1.4120   18.8485   -1.6131 H   0  0  0  0  0  0  0  0  0  0  0  0
    3.5150   18.5470   -2.2560 H   0  0  0  0  0  0  0  0  0  0  0  0
    0.9638   17.0083    1.1684 H   0  0  0  0  0  0  0  0  0  0  0  0
    0.1300   18.0110   -0.0669 H   0  0  0  0  0  0  0  0  0  0  0  0
   -0.0804   16.2271   -0.0669 H   0  0  0  0  0  0  0  0  0  0  0  0
    2.8623   17.2798    1.0753 H   0  0  0  0  0  0  0  0  0  0  0  0
    3.9449   16.7232   -0.2456 H   0  0  0  0  0  0  0  0  0  0  0  0
    3.3207   18.4075   -0.2456 H   0  0  0  0  0  0  0  0  0  0  0  0
    2.9836   13.3404   -3.6840 H   0  0  0  0  0  0  0  0  0  0  0  0
    1.7068   12.5378   -4.6598 H   0  0  0  0  0  0  0  0  0  0  0  0
    1.8446   14.3288   -4.6598 H   0  0  0  0  0  0  0  0  0  0  0  0
   -0.9309   13.9036   -3.8052 H   0  0  0  0  0  0  0  0  0  0  0  0
   -0.2170   12.2142   -4.0740 H   0  0  0  0  0  0  0  0  0  0  0  0
   -1.7582   13.2078   -1.6616 H   0  0  0  0  0  0  0  0  0  0  0  0
   -2.2381   11.9510   -2.8688 H   0  0  0  0  0  0  0  0  0  0  0  0
    0.0616    9.3129   -1.8875 H   0  0  0  0  0  0  0  0  0  0  0  0
   -1.1182    9.9022   -3.1072 H   0  0  0  0  0  0  0  0  0  0  0  0
    0.5641   10.5322   -3.1072 H   0  0  0  0  0  0  0  0  0  0  0  0
  1  2  1  0
  2  3  1  0
  3  4  1  0
  4  5  1  0
  5  6  1  0
  6  7  1  0
  7  8  1  0
  7  9  1  0
  2 10  1  0
 10 11  1  0
 11 12  1  0
 12 13  1  0
 13 14  1  1
 13 15  1  0
 15 16  1  0
 16 17  1  0
 17 18  2  0
 18 19  1  0
 19 20  1  0
 20 21  1  0
 21 22  1  0
 22 23  1  0
 22 24  1  0
 24 25  1  0
 24 26  1  0
 19 27  1  0
 27 28  1  6
 27 29  1  0
 29 30  1  0
 30 31  1  0
 31 32  1  6
  7  5  1  0
 31 10  1  0
 31 13  1  0
 27 15  1  0
 24 18  1  0
  1 33  1  0
  1 34  1  0
  1 35  1  0
  2 36  1  6
  3 37  1  0
  3 38  1  0
  4 39  1  0
  4 40  1  0
  5 41  1  1
  8 42  1  0
  8 43  1  0
  8 44  1  0
  9 45  1  0
  9 46  1  0
  9 47  1  0
 10 48  1  1
 11 49  1  0
 11 50  1  0
 12 51  1  0
 12 52  1  0
 14 53  1  0
 14 54  1  0
 14 55  1  0
 15 56  1  6
 16 57  1  0
 16 58  1  0
 17 59  1  0
 19 60  1  1
 20 61  1  0
 20 62  1  0
 21 63  1  0
 21 64  1  0
 22 65  1  1
 23 66  1  0
 25 67  1  0
 25 68  1  0
 25 69  1  0
 26 70  1  0
 26 71  1  0
 26 72  1  0
 28 73  1  0
 28 74  1  0
 28 75  1  0
 29 76  1  0
 29 77  1  0
 30 78  1  0
 30 79  1  0
 32 80  1  0
 32 81  1  0
 32 82  1  0
M  END
>  <meeko>  (5) 
{"is_sidechain": [false], "intermolecular_energy": 2.731, "internal_energy": -0.839}

$$$$
EPH_relaxed_0001_pdb2pqr_Repair_227_r2_0001_out
     RDKit          3D

 82 86  0  0  0  0  0  0  0  0999 V2000
   -5.1920    5.7860   -1.7650 C   0  0  0  0  0  0  0  0  0  0  0  0
   -5.4760    7.2890   -1.8290 C   0  0  2  0  0  0  0  0  0  0  0  0
   -5.2320    7.9840   -0.4750 C   0  0  0  0  0  0  0  0  0  0  0  0
   -4.2070    9.1200   -0.5410 C   0  0  0  0  0  0  0  0  0  0  0  0
   -2.8250    8.6040   -0.8080 C   0  0  2  0  0  0  0  0  0  0  0  0
   -1.8540    8.9500    0.1880 O   0  0  0  0  0  0  0  0  0  0  0  0
   -1.6430    9.5020   -1.1210 C   0  0  0  0  0  0  0  0  0  0  0  0
   -1.7890   10.9900   -1.1850 C   0  0  0  0  0  0  0  0  0  0  0  0
   -0.4690    8.9140   -1.8410 C   0  0  0  0  0  0  0  0  0  0  0  0
   -6.9100    7.5280   -2.2870 C   0  0  1  0  0  0  0  0  0  0  0  0
   -7.2280    6.8380   -3.6400 C   0  0  0  0  0  0  0  0  0  0  0  0
   -8.7060    6.3760   -3.5710 C   0  0  0  0  0  0  0  0  0  0  0  0
   -9.2820    7.1000   -2.3310 C   0  0  1  0  0  0  0  0  0  0  0  0
   -9.6240    8.5390   -2.8290 C   0  0  0  0  0  0  0  0  0  0  0  0
  -10.5120    6.4210   -1.6440 C   0  0  2  0  0  0  0  0  0  0  0  0
  -11.7700    6.3070   -2.5220 C   0  0  0  0  0  0  0  0  0  0  0  0
  -12.7140    7.4600   -2.4350 C   0  0  0  0  0  0  0  0  0  0  0  0
  -12.7070    8.4070   -1.4780 C   0  0  0  0  0  0  0  0  0  0  0  0
  -11.7380    8.3200   -0.2920 C   0  0  1  0  0  0  0  0  0  0  0  0
  -12.5070    8.6030    1.0260 C   0  0  0  0  0  0  0  0  0  0  0  0
  -13.2660    9.9260    0.9880 C   0  0  0  0  0  0  0  0  0  0  0  0
  -14.2600    9.9510   -0.1710 C   0  0  2  0  0  0  0  0  0  0  0  0
  -15.2850    8.9840    0.0800 O   0  0  0  0  0  0  0  0  0  0  0  0
  -13.6020    9.6690   -1.5500 C   0  0  0  0  0  0  0  0  0  0  0  0
  -12.7150   10.8710   -1.9590 C   0  0  0  0  0  0  0  0  0  0  0  0
  -14.7320    9.5830   -2.6100 C   0  0  0  0  0  0  0  0  0  0  0  0
  -10.8560    7.0010   -0.2120 C   0  0  1  0  0  0  0  0  0  0  0  0
  -11.6370    5.8830    0.5450 C   0  0  0  0  0  0  0  0  0  0  0  0
   -9.5660    7.2960    0.6400 C   0  0  0  0  0  0  0  0  0  0  0  0
   -8.3450    7.8540   -0.1170 C   0  0  0  0  0  0  0  0  0  0  0  0
   -8.0450    7.0180   -1.3650 C   0  0  2  0  0  0  0  0  0  0  0  0
   -7.6770    5.5700   -0.8930 C   0  0  0  0  0  0  0  0  0  0  0  0
   -5.1320    5.4686   -0.7135 H   0  0  0  0  0  0  0  0  0  0  0  0
   -6.0025    5.2380   -2.2678 H   0  0  0  0  0  0  0  0  0  0  0  0
   -4.2374    5.5715   -2.2678 H   0  0  0  0  0  0  0  0  0  0  0  0
   -4.7761    7.7275   -2.5555 H   0  0  0  0  0  0  0  0  0  0  0  0
   -6.1872    8.3985   -0.1205 H   0  0  0  0  0  0  0  0  0  0  0  0
   -4.8249    7.2235    0.2075 H   0  0  0  0  0  0  0  0  0  0  0  0
   -4.4918    9.8109   -1.3482 H   0  0  0  0  0  0  0  0  0  0  0  0
   -4.1999    9.6328    0.4321 H   0  0  0  0  0  0  0  0  0  0  0  0
   -3.2293    7.7137   -1.3120 H   0  0  0  0  0  0  0  0  0  0  0  0
   -1.8291   11.3987   -0.1645 H   0  0  0  0  0  0  0  0  0  0  0  0
   -0.9288   11.4202   -1.7188 H   0  0  0  0  0  0  0  0  0  0  0  0
   -2.7165   11.2448   -1.7188 H   0  0  0  0  0  0  0  0  0  0  0  0
    0.2643    8.5467   -1.1079 H   0  0  0  0  0  0  0  0  0  0  0  0
   -0.8067    8.0786   -2.4720 H   0  0  0  0  0  0  0  0  0  0  0  0
   -0.0023    9.6847   -2.4720 H   0  0  0  0  0  0  0  0  0  0  0  0
   -6.9135    8.6276   -2.3152 H   0  0  0  0  0  0  0  0  0  0  0  0
   -7.0917    7.5485   -4.4686 H   0  0  0  0  0  0  0  0  0  0  0  0
   -6.5558    5.9852   -3.8156 H   0  0  0  0  0  0  0  0  0  0  0  0
   -9.2486    6.6722   -4.4808 H   0  0  0  0  0  0  0  0  0  0  0  0
   -8.7989    5.2824   -3.4969 H   0  0  0  0  0  0  0  0  0  0  0  0
   -9.7809    9.1990   -1.9631 H   0  0  0  0  0  0  0  0  0  0  0  0
   -8.7923    8.9238   -3.4374 H   0  0  0  0  0  0  0  0  0  0  0  0
  -10.5399    8.5084   -3.4374 H   0  0  0  0  0  0  0  0  0  0  0  0
  -10.1591    5.3899   -1.4945 H   0  0  0  0  0  0  0  0  0  0  0  0
  -11.4464    6.2107   -3.5689 H   0  0  0  0  0  0  0  0  0  0  0  0
  -12.3229    5.4319   -2.1499 H   0  0  0  0  0  0  0  0  0  0  0  0
  -13.4806    7.5430   -3.2195 H   0  0  0  0  0  0  0  0  0  0  0  0
  -10.9820    9.1013   -0.4591 H   0  0  0  0  0  0  0  0  0  0  0  0
  -13.2264    7.7885    1.1963 H   0  0  0  0  0  0  0  0  0  0  0  0
  -11.7670    8.6658    1.8374 H   0  0  0  0  0  0  0  0  0  0  0  0
  -13.8124   10.0550    1.9339 H   0  0  0  0  0  0  0  0  0  0  0  0
  -12.5423   10.7424    0.8479 H   0  0  0  0  0  0  0  0  0  0  0  0
  -14.6770   10.9675   -0.2255 H   0  0  0  0  0  0  0  0  0  0  0  0
  -16.0940    9.4680    0.3160 H   0  0  0  0  0  0  0  0  0  0  0  0
  -12.3424   11.3759   -1.0555 H   0  0  0  0  0  0  0  0  0  0  0  0
  -11.8636   10.5121   -2.5560 H   0  0  0  0  0  0  0  0  0  0  0  0
  -13.3090   11.5787   -2.5560 H   0  0  0  0  0  0  0  0  0  0  0  0
  -15.7054    9.5089   -2.1031 H   0  0  0  0  0  0  0  0  0  0  0  0
  -14.7140   10.4851   -3.2392 H   0  0  0  0  0  0  0  0  0  0  0  0
  -14.5777    8.6940   -3.2392 H   0  0  0  0  0  0  0  0  0  0  0  0
  -11.5324    6.0328    1.6297 H   0  0  0  0  0  0  0  0  0  0  0  0
  -12.7010    5.9282    0.2696 H   0  0  0  0  0  0  0  0  0  0  0  0
  -11.2284    4.8995    0.2696 H   0  0  0  0  0  0  0  0  0  0  0  0
   -9.8393    8.0270    1.4152 H   0  0  0  0  0  0  0  0  0  0  0  0
   -9.2439    6.3163    1.0227 H   0  0  0  0  0  0  0  0  0  0  0  0
   -8.5523    8.8910   -0.4198 H   0  0  0  0  0  0  0  0  0  0  0  0
   -7.4710    7.8151    0.5498 H   0  0  0  0  0  0  0  0  0  0  0  0
   -7.6678    5.5339    0.2064 H   0  0  0  0  0  0  0  0  0  0  0  0
   -8.4229    4.8585   -1.2770 H   0  0  0  0  0  0  0  0  0  0  0  0
   -6.6819    5.3010   -1.2770 H   0  0  0  0  0  0  0  0  0  0  0  0
  1  2  1  0
  2  3  1  0
  3  4  1  0
  4  5  1  0
  5  6  1  0
  6  7  1  0
  7  8  1  0
  7  9  1  0
  2 10  1  0
 10 11  1  0
 11 12  1  0
 12 13  1  0
 13 14  1  6
 13 15  1  0
 15 16  1  0
 16 17  1  0
 17 18  2  0
 18 19  1  0
 19 20  1  0
 20 21  1  0
 21 22  1  0
 22 23  1  0
 22 24  1  0
 24 25  1  0
 24 26  1  0
 19 27  1  0
 27 28  1  1
 27 29  1  0
 29 30  1  0
 30 31  1  0
 31 32  1  1
  7  5  1  0
 31 10  1  0
 31 13  1  0
 27 15  1  0
 24 18  1  0
  1 33  1  0
  1 34  1  0
  1 35  1  0
  2 36  1  6
  3 37  1  0
  3 38  1  0
  4 39  1  0
  4 40  1  0
  5 41  1  6
  8 42  1  0
  8 43  1  0
  8 44  1  0
  9 45  1  0
  9 46  1  0
  9 47  1  0
 10 48  1  6
 11 49  1  0
 11 50  1  0
 12 51  1  0
 12 52  1  0
 14 53  1  0
 14 54  1  0
 14 55  1  0
 15 56  1  1
 16 57  1  0
 16 58  1  0
 17 59  1  0
 19 60  1  6
 20 61  1  0
 20 62  1  0
 21 63  1  0
 21 64  1  0
 22 65  1  6
 23 66  1  0
 25 67  1  0
 25 68  1  0
 25 69  1  0
 26 70  1  0
 26 71  1  0
 26 72  1  0
 28 73  1  0
 28 74  1  0
 28 75  1  0
 29 76  1  0
 29 77  1  0
 30 78  1  0
 30 79  1  0
 32 80  1  0
 32 81  1  0
 32 82  1  0
M  END
>  <meeko>  (6) 
{"is_sidechain": [false], "intermolecular_energy": 2.731, "internal_energy": -0.839}

$$$$
EPH_relaxed_0001_pdb2pqr_Repair_227_r2_0001_out
     RDKit          3D

 82 86  0  0  0  0  0  0  0  0999 V2000
    0.4140    8.8910   -2.5290 C   0  0  0  0  0  0  0  0  0  0  0  0
    1.1780   10.0520   -3.1710 C   0  0  2  0  0  0  0  0  0  0  0  0
    2.6700   10.0510   -2.7820 C   0  0  0  0  0  0  0  0  0  0  0  0
    3.5860   10.6450   -3.8550 C   0  0  0  0  0  0  0  0  0  0  0  0
    4.9790   10.8520   -3.3430 C   0  0  2  0  0  0  0  0  0  0  0  0
    5.6090   12.0590   -3.7920 O   0  0  0  0  0  0  0  0  0  0  0  0
    6.2090   10.8300   -4.2310 C   0  0  0  0  0  0  0  0  0  0  0  0
    6.1040   10.5940   -5.7050 C   0  0  0  0  0  0  0  0  0  0  0  0
    7.5400   10.5510   -3.6040 C   0  0  0  0  0  0  0  0  0  0  0  0
    0.5380   11.3770   -2.7740 C   0  0  1  0  0  0  0  0  0  0  0  0
   -0.8320   11.1910   -2.0690 C   0  0  0  0  0  0  0  0  0  0  0  0
   -0.9430   12.3120   -1.0030 C   0  0  0  0  0  0  0  0  0  0  0  0
    0.2000   13.2940   -1.3510 C   0  0  1  0  0  0  0  0  0  0  0  0
   -0.3630   14.1710   -2.5130 C   0  0  0  0  0  0  0  0  0  0  0  0
    0.7380   14.1730   -0.1740 C   0  0  2  0  0  0  0  0  0  0  0  0
   -0.2910   15.1350    0.4450 C   0  0  0  0  0  0  0  0  0  0  0  0
   -0.3450   16.4930   -0.1720 C   0  0  0  0  0  0  0  0  0  0  0  0
    0.5870   17.0200   -0.9870 C   0  0  0  0  0  0  0  0  0  0  0  0
    1.8890   16.2650   -1.2870 C   0  0  1  0  0  0  0  0  0  0  0  0
    3.0930   17.2340   -1.1510 C   0  0  0  0  0  0  0  0  0  0  0  0
    2.9350   18.4870   -2.0070 C   0  0  0  0  0  0  0  0  0  0  0  0
    1.6590   19.2410   -1.6400 C   0  0  2  0  0  0  0  0  0  0  0  0
    1.7950   19.7570   -0.3120 O   0  0  0  0  0  0  0  0  0  0  0  0
    0.3800   18.3630   -1.7310 C   0  0  0  0  0  0  0  0  0  0  0  0
    0.0660   18.0530   -3.2150 C   0  0  0  0  0  0  0  0  0  0  0  0
   -0.8140   19.2010   -1.2000 C   0  0  0  0  0  0  0  0  0  0  0  0
    2.1040   14.9090   -0.4860 C   0  0  1  0  0  0  0  0  0  0  0  0
    2.7750   15.2040    0.8900 C   0  0  0  0  0  0  0  0  0  0  0  0
    3.1080   13.9950   -1.2830 C   0  0  0  0  0  0  0  0  0  0  0  0
    2.5020   13.0630   -2.3500 C   0  0  0  0  0  0  0  0  0  0  0  0
    1.3170   12.2750   -1.7810 C   0  0  2  0  0  0  0  0  0  0  0  0
    1.8580   11.3680   -0.6240 C   0  0  0  0  0  0  0  0  0  0  0  0
    0.4701    8.9762   -1.4337 H   0  0  0  0  0  0  0  0  0  0  0  0
   -0.6388    8.9250   -2.8460 H   0  0  0  0  0  0  0  0  0  0  0  0
    0.8618    7.9376   -2.8460 H   0  0  0  0  0  0  0  0  0  0  0  0
    1.1210    9.9228   -4.2619 H   0  0  0  0  0  0  0  0  0  0  0  0
    2.7888   10.6387   -1.8598 H   0  0  0  0  0  0  0  0  0  0  0  0
    2.9674    9.0001   -2.6512 H   0  0  0  0  0  0  0  0  0  0  0  0
    3.6204    9.9587   -4.7139 H   0  0  0  0  0  0  0  0  0  0  0  0
    3.1798   11.6243   -4.1484 H   0  0  0  0  0  0  0  0  0  0  0  0
    4.7366   10.3308   -2.4052 H   0  0  0  0  0  0  0  0  0  0  0  0
    5.6630    9.6029   -5.8871 H   0  0  0  0  0  0  0  0  0  0  0  0
    5.4653   11.3679   -6.1557 H   0  0  0  0  0  0  0  0  0  0  0  0
    7.1065   10.6377   -6.1557 H   0  0  0  0  0  0  0  0  0  0  0  0
    7.4409   10.5718   -2.5087 H   0  0  0  0  0  0  0  0  0  0  0  0
    7.8941    9.5591   -3.9214 H   0  0  0  0  0  0  0  0  0  0  0  0
    8.2627   11.3172   -3.9214 H   0  0  0  0  0  0  0  0  0  0  0  0
    0.4906   11.8610   -3.7607 H   0  0  0  0  0  0  0  0  0  0  0  0
   -1.6493   11.2810   -2.7997 H   0  0  0  0  0  0  0  0  0  0  0  0
   -0.9054   10.1963   -1.6050 H   0  0  0  0  0  0  0  0  0  0  0  0
   -1.9196   12.8140   -1.0673 H   0  0  0  0  0  0  0  0  0  0  0  0
   -0.8614   11.9227    0.0226 H   0  0  0  0  0  0  0  0  0  0  0  0
   -0.9123   15.0267   -2.0935 H   0  0  0  0  0  0  0  0  0  0  0  0
    0.4691   14.5374   -3.1322 H   0  0  0  0  0  0  0  0  0  0  0  0
   -1.0425   13.5670   -3.1322 H   0  0  0  0  0  0  0  0  0  0  0  0
    0.9503   13.4233    0.6024 H   0  0  0  0  0  0  0  0  0  0  0  0
   -1.2864   14.6772    0.3470 H   0  0  0  0  0  0  0  0  0  0  0  0
    0.0230   15.2867    1.4883 H   0  0  0  0  0  0  0  0  0  0  0  0
   -1.2215   17.1162    0.0593 H   0  0  0  0  0  0  0  0  0  0  0  0
    1.8059   15.9169   -2.3271 H   0  0  0  0  0  0  0  0  0  0  0  0
    3.1853   17.5361   -0.0973 H   0  0  0  0  0  0  0  0  0  0  0  0
    3.9906   16.7023   -1.4998 H   0  0  0  0  0  0  0  0  0  0  0  0
    3.8013   19.1452   -1.8451 H   0  0  0  0  0  0  0  0  0  0  0  0
    2.8733   18.1854   -3.0630 H   0  0  0  0  0  0  0  0  0  0  0  0
    1.5338   20.0530   -2.3714 H   0  0  0  0  0  0  0  0  0  0  0  0
    1.0590   20.3750   -0.1600 H   0  0  0  0  0  0  0  0  0  0  0  0
   -0.7158   17.2812   -3.2709 H   0  0  0  0  0  0  0  0  0  0  0  0
   -0.2857   18.9679   -3.7142 H   0  0  0  0  0  0  0  0  0  0  0  0
    0.9763   17.6896   -3.7142 H   0  0  0  0  0  0  0  0  0  0  0  0
   -0.8057   19.1951   -0.1000 H   0  0  0  0  0  0  0  0  0  0  0  0
   -0.7252   20.2360   -1.5618 H   0  0  0  0  0  0  0  0  0  0  0  0
   -1.7572   18.7657   -1.5618 H   0  0  0  0  0  0  0  0  0  0  0  0
    2.0949   14.9050    1.7012 H   0  0  0  0  0  0  0  0  0  0  0  0
    3.7132   14.6354    0.9698 H   0  0  0  0  0  0  0  0  0  0  0  0
    2.9903   16.2798    0.9698 H   0  0  0  0  0  0  0  0  0  0  0  0
    3.8292   14.6544   -1.7880 H   0  0  0  0  0  0  0  0  0  0  0  0
    3.5461   13.3237   -0.5298 H   0  0  0  0  0  0  0  0  0  0  0  0
    2.1565   13.6676   -3.2015 H   0  0  0  0  0  0  0  0  0  0  0  0
    3.2749   12.3499   -2.6725 H   0  0  0  0  0  0  0  0  0  0  0  0
    1.5922   11.8135    0.3460 H   0  0  0  0  0  0  0  0  0  0  0  0
    1.4095   10.3667   -0.7028 H   0  0  0  0  0  0  0  0  0  0  0  0
    2.9522   11.2869   -0.7028 H   0  0  0  0  0  0  0  0  0  0  0  0
  1  2  1  0
  2  3  1  0
  3  4  1  0
  4  5  1  0
  5  6  1  0
  6  7  1  0
  7  8  1  0
  7  9  1  0
  2 10  1  0
 10 11  1  0
 11 12  1  0
 12 13  1  0
 13 14  1  6
 13 15  1  0
 15 16  1  0
 16 17  1  0
 17 18  2  0
 18 19  1  0
 19 20  1  0
 20 21  1  0
 21 22  1  0
 22 23  1  0
 22 24  1  0
 24 25  1  0
 24 26  1  0
 19 27  1  0
 27 28  1  1
 27 29  1  0
 29 30  1  0
 30 31  1  0
 31 32  1  1
  7  5  1  0
 31 10  1  0
 31 13  1  0
 27 15  1  0
 24 18  1  0
  1 33  1  0
  1 34  1  0
  1 35  1  0
  2 36  1  6
  3 37  1  0
  3 38  1  0
  4 39  1  0
  4 40  1  0
  5 41  1  1
  8 42  1  0
  8 43  1  0
  8 44  1  0
  9 45  1  0
  9 46  1  0
  9 47  1  0
 10 48  1  6
 11 49  1  0
 11 50  1  0
 12 51  1  0
 12 52  1  0
 14 53  1  0
 14 54  1  0
 14 55  1  0
 15 56  1  1
 16 57  1  0
 16 58  1  0
 17 59  1  0
 19 60  1  6
 20 61  1  0
 20 62  1  0
 21 63  1  0
 21 64  1  0
 22 65  1  6
 23 66  1  0
 25 67  1  0
 25 68  1  0
 25 69  1  0
 26 70  1  0
 26 71  1  0
 26 72  1  0
 28 73  1  0
 28 74  1  0
 28 75  1  0
 29 76  1  0
 29 77  1  0
 30 78  1  0
 30 79  1  0
 32 80  1  0
 32 81  1  0
 32 82  1  0
M  END
>  <meeko>  (7) 
{"is_sidechain": [false], "intermolecular_energy": 2.731, "internal_energy": -0.839}

$$$$
EPH_relaxed_0001_pdb2pqr_Repair_227_r2_0001_out
     RDKit          3D

 82 86  0  0  0  0  0  0  0  0999 V2000
    3.2010   18.9580   -1.4020 C   0  0  0  0  0  0  0  0  0  0  0  0
    1.7220   18.9510   -1.0050 C   0  0  2  0  0  0  0  0  0  0  0  0
    1.4230   19.9440    0.1360 C   0  0  0  0  0  0  0  0  0  0  0  0
    2.0280   19.5350    1.4820 C   0  0  0  0  0  0  0  0  0  0  0  0
    3.5250   19.6060    1.4610 C   0  0  2  0  0  0  0  0  0  0  0  0
    4.1860   18.4340    1.9540 O   0  0  0  0  0  0  0  0  0  0  0  0
    4.3780   19.6370    2.7160 C   0  0  0  0  0  0  0  0  0  0  0  0
    3.7630   19.5990    4.0790 C   0  0  0  0  0  0  0  0  0  0  0  0
    5.7650   20.1940    2.6240 C   0  0  0  0  0  0  0  0  0  0  0  0
    1.3010   17.5440   -0.5950 C   0  0  1  0  0  0  0  0  0  0  0  0
   -0.0160   17.5300    0.2260 C   0  0  0  0  0  0  0  0  0  0  0  0
   -0.7740   16.2370   -0.1670 C   0  0  0  0  0  0  0  0  0  0  0  0
    0.2680   15.3930   -0.9390 C   0  0  1  0  0  0  0  0  0  0  0  0
    1.1250   14.7040    0.1680 C   0  0  0  0  0  0  0  0  0  0  0  0
   -0.3030   14.3530   -1.9580 C   0  0  2  0  0  0  0  0  0  0  0  0
   -1.1720   13.2440   -1.3400 C   0  0  0  0  0  0  0  0  0  0  0  0
   -0.4350   12.0130   -0.9260 C   0  0  0  0  0  0  0  0  0  0  0  0
    0.8160   11.6880   -1.3000 C   0  0  0  0  0  0  0  0  0  0  0  0
    1.5880   12.5520   -2.3050 C   0  0  1  0  0  0  0  0  0  0  0  0
    2.2480   11.6410   -3.3730 C   0  0  0  0  0  0  0  0  0  0  0  0
    3.1170   10.5500   -2.7540 C   0  0  0  0  0  0  0  0  0  0  0  0
    2.3010    9.6760   -1.8050 C   0  0  2  0  0  0  0  0  0  0  0  0
    1.3370    8.9440   -2.5680 O   0  0  0  0  0  0  0  0  0  0  0  0
    1.5810   10.4860   -0.6920 C   0  0  0  0  0  0  0  0  0  0  0  0
    2.6250   11.0330    0.3130 C   0  0  0  0  0  0  0  0  0  0  0  0
    0.6820    9.5050    0.1080 C   0  0  0  0  0  0  0  0  0  0  0  0
    0.7770   13.7580   -2.9490 C   0  0  1  0  0  0  0  0  0  0  0  0
    0.0000   13.2640   -4.2080 C   0  0  0  0  0  0  0  0  0  0  0  0
    1.7920   14.8500   -3.4540 C   0  0  0  0  0  0  0  0  0  0  0  0
    2.2260   15.9200   -2.4340 C   0  0  0  0  0  0  0  0  0  0  0  0
    1.0110   16.5300   -1.7300 C   0  0  2  0  0  0  0  0  0  0  0  0
    0.1400   17.2500   -2.8160 C   0  0  0  0  0  0  0  0  0  0  0  0
    3.8240   18.9609   -0.4954 H   0  0  0  0  0  0  0  0  0  0  0  0
    3.4250   18.0609   -1.9979 H   0  0  0  0  0  0  0  0  0  0  0  0
    3.4164   19.8572   -1.9979 H   0  0  0  0  0  0  0  0  0  0  0  0
    1.1416   19.2719   -1.8826 H   0  0  0  0  0  0  0  0  0  0  0  0
    1.8301   20.9270   -0.1434 H   0  0  0  0  0  0  0  0  0  0  0  0
    0.3310   19.9639    0.2670 H   0  0  0  0  0  0  0  0  0  0  0  0
    1.6499   20.2111    2.2630 H   0  0  0  0  0  0  0  0  0  0  0  0
    1.7368   18.4942    1.6870 H   0  0  0  0  0  0  0  0  0  0  0  0
    3.5065   20.2445    0.5655 H   0  0  0  0  0  0  0  0  0  0  0  0
    4.5555   19.6480    4.8403 H   0  0  0  0  0  0  0  0  0  0  0  0
    3.0853   20.4570    4.1995 H   0  0  0  0  0  0  0  0  0  0  0  0
    3.1960   18.6641    4.1995 H   0  0  0  0  0  0  0  0  0  0  0  0
    6.1637   20.3541    3.6366 H   0  0  0  0  0  0  0  0  0  0  0  0
    6.4098   19.4851    2.0839 H   0  0  0  0  0  0  0  0  0  0  0  0
    5.7403   21.1520    2.0839 H   0  0  0  0  0  0  0  0  0  0  0  0
    2.1982   17.2378   -0.0370 H   0  0  0  0  0  0  0  0  0  0  0  0
    0.2089   17.5248    1.3028 H   0  0  0  0  0  0  0  0  0  0  0  0
   -0.6225   18.4231    0.0149 H   0  0  0  0  0  0  0  0  0  0  0  0
   -1.1198   15.7018    0.7297 H   0  0  0  0  0  0  0  0  0  0  0  0
   -1.6705   16.4457   -0.7692 H   0  0  0  0  0  0  0  0  0  0  0  0
    0.7529   15.0031    1.1590 H   0  0  0  0  0  0  0  0  0  0  0  0
    1.0504   13.6116    0.0627 H   0  0  0  0  0  0  0  0  0  0  0  0
    2.1759   15.0116    0.0627 H   0  0  0  0  0  0  0  0  0  0  0  0
   -0.9877   14.9654   -2.5631 H   0  0  0  0  0  0  0  0  0  0  0  0
   -1.6694   13.6578   -0.4504 H   0  0  0  0  0  0  0  0  0  0  0  0
   -1.8710   12.9296   -2.1290 H   0  0  0  0  0  0  0  0  0  0  0  0
   -0.9591   11.3127   -0.2589 H   0  0  0  0  0  0  0  0  0  0  0  0
    2.3658   13.0704   -1.7251 H   0  0  0  0  0  0  0  0  0  0  0  0
    1.4555   11.1650   -3.9691 H   0  0  0  0  0  0  0  0  0  0  0  0
    2.8981   12.2730   -3.9958 H   0  0  0  0  0  0  0  0  0  0  0  0
    3.5313    9.9213   -3.5560 H   0  0  0  0  0  0  0  0  0  0  0  0
    3.9267   11.0277   -2.1829 H   0  0  0  0  0  0  0  0  0  0  0  0
    3.0019    8.9987   -1.2951 H   0  0  0  0  0  0  0  0  0  0  0  0
    1.1170    9.4750   -3.3520 H   0  0  0  0  0  0  0  0  0  0  0  0
    2.2761   10.8502    1.3401 H   0  0  0  0  0  0  0  0  0  0  0  0
    3.5870   10.5231    0.1563 H   0  0  0  0  0  0  0  0  0  0  0  0
    2.7533   12.1142    0.1563 H   0  0  0  0  0  0  0  0  0  0  0  0
    0.8307    9.6673    1.1857 H   0  0  0  0  0  0  0  0  0  0  0  0
   -0.3730    9.6831   -0.1475 H   0  0  0  0  0  0  0  0  0  0  0  0
    0.9513    8.4695   -0.1475 H   0  0  0  0  0  0  0  0  0  0  0  0
   -0.8891   12.6987   -3.8918 H   0  0  0  0  0  0  0  0  0  0  0  0
   -0.3113   14.1304   -4.8101 H   0  0  0  0  0  0  0  0  0  0  0  0
    0.6524   12.6145   -4.8101 H   0  0  0  0  0  0  0  0  0  0  0  0
    2.6985   14.3290   -3.7957 H   0  0  0  0  0  0  0  0  0  0  0  0
    1.2539   15.4020   -4.2387 H   0  0  0  0  0  0  0  0  0  0  0  0
    2.8819   15.4560   -1.6827 H   0  0  0  0  0  0  0  0  0  0  0  0
    2.7594   16.7193   -2.9693 H   0  0  0  0  0  0  0  0  0  0  0  0
   -0.6176   17.8763   -2.3223 H   0  0  0  0  0  0  0  0  0  0  0  0
    0.7854   17.8818   -3.4440 H   0  0  0  0  0  0  0  0  0  0  0  0
   -0.3591   16.4973   -3.4440 H   0  0  0  0  0  0  0  0  0  0  0  0
  1  2  1  0
  2  3  1  0
  3  4  1  0
  4  5  1  0
  5  6  1  0
  6  7  1  0
  7  8  1  0
  7  9  1  0
  2 10  1  0
 10 11  1  0
 11 12  1  0
 12 13  1  0
 13 14  1  1
 13 15  1  0
 15 16  1  0
 16 17  1  0
 17 18  2  0
 18 19  1  0
 19 20  1  0
 20 21  1  0
 21 22  1  0
 22 23  1  0
 22 24  1  0
 24 25  1  0
 24 26  1  0
 19 27  1  0
 27 28  1  6
 27 29  1  0
 29 30  1  0
 30 31  1  0
 31 32  1  6
  7  5  1  0
 31 10  1  0
 31 13  1  0
 27 15  1  0
 24 18  1  0
  1 33  1  0
  1 34  1  0
  1 35  1  0
  2 36  1  6
  3 37  1  0
  3 38  1  0
  4 39  1  0
  4 40  1  0
  5 41  1  6
  8 42  1  0
  8 43  1  0
  8 44  1  0
  9 45  1  0
  9 46  1  0
  9 47  1  0
 10 48  1  1
 11 49  1  0
 11 50  1  0
 12 51  1  0
 12 52  1  0
 14 53  1  0
 14 54  1  0
 14 55  1  0
 15 56  1  6
 16 57  1  0
 16 58  1  0
 17 59  1  0
 19 60  1  1
 20 61  1  0
 20 62  1  0
 21 63  1  0
 21 64  1  0
 22 65  1  1
 23 66  1  0
 25 67  1  0
 25 68  1  0
 25 69  1  0
 26 70  1  0
 26 71  1  0
 26 72  1  0
 28 73  1  0
 28 74  1  0
 28 75  1  0
 29 76  1  0
 29 77  1  0
 30 78  1  0
 30 79  1  0
 32 80  1  0
 32 81  1  0
 32 82  1  0
M  END
>  <meeko>  (8) 
{"is_sidechain": [false], "intermolecular_energy": 2.731, "internal_energy": -0.839}

$$$$
EPH_relaxed_0001_pdb2pqr_Repair_227_r2_0001_out
     RDKit          3D

 82 86  0  0  0  0  0  0  0  0999 V2000
    0.1830   17.8070   -2.4980 C   0  0  0  0  0  0  0  0  0  0  0  0
   -0.0270   16.9360   -1.2560 C   0  0  2  0  0  0  0  0  0  0  0  0
   -0.0300   17.7670    0.0430 C   0  0  0  0  0  0  0  0  0  0  0  0
    0.6330   19.1390   -0.1030 C   0  0  0  0  0  0  0  0  0  0  0  0
    1.7400   19.3290    0.8890 C   0  0  2  0  0  0  0  0  0  0  0  0
    2.7960   20.1940    0.4510 O   0  0  0  0  0  0  0  0  0  0  0  0
    3.1530   18.8210    0.6730 C   0  0  0  0  0  0  0  0  0  0  0  0
    3.5360   18.0820   -0.5710 C   0  0  0  0  0  0  0  0  0  0  0  0
    4.0290   18.6120    1.8690 C   0  0  0  0  0  0  0  0  0  0  0  0
    1.0530   15.8630   -1.1860 C   0  0  1  0  0  0  0  0  0  0  0  0
    1.2880   15.3450    0.2580 C   0  0  0  0  0  0  0  0  0  0  0  0
    1.6290   13.8370    0.1430 C   0  0  0  0  0  0  0  0  0  0  0  0
    1.9050   13.6140   -1.3630 C   0  0  1  0  0  0  0  0  0  0  0  0
    3.3760   14.0910   -1.5760 C   0  0  0  0  0  0  0  0  0  0  0  0
    1.6870   12.1610   -1.8970 C   0  0  2  0  0  0  0  0  0  0  0  0
    2.6020   11.0920   -1.2750 C   0  0  0  0  0  0  0  0  0  0  0  0
    3.8920   10.8610   -1.9920 C   0  0  0  0  0  0  0  0  0  0  0  0
    4.1770   11.2750   -3.2410 C   0  0  0  0  0  0  0  0  0  0  0  0
    3.1150   11.9680   -4.1030 C   0  0  1  0  0  0  0  0  0  0  0  0
    3.1180   11.3500   -5.5260 C   0  0  0  0  0  0  0  0  0  0  0  0
    4.5000   11.3740   -6.1710 C   0  0  0  0  0  0  0  0  0  0  0  0
    5.5160   10.6250   -5.3130 C   0  0  2  0  0  0  0  0  0  0  0  0
    5.1750    9.2350   -5.3030 O   0  0  0  0  0  0  0  0  0  0  0  0
    5.5940   11.1540   -3.8530 C   0  0  0  0  0  0  0  0  0  0  0  0
    6.2490   12.5570   -3.8430 C   0  0  0  0  0  0  0  0  0  0  0  0
    6.5490   10.2230   -3.0590 C   0  0  0  0  0  0  0  0  0  0  0  0
    1.6570   12.0480   -3.4750 C   0  0  1  0  0  0  0  0  0  0  0  0
    0.8600   10.7520   -3.8140 C   0  0  0  0  0  0  0  0  0  0  0  0
    0.8730   13.2390   -4.1450 C   0  0  0  0  0  0  0  0  0  0  0  0
    1.0350   14.6280   -3.4990 C   0  0  0  0  0  0  0  0  0  0  0  0
    0.8130   14.5580   -1.9850 C   0  0  2  0  0  0  0  0  0  0  0  0
   -0.6660   14.1010   -1.7400 C   0  0  0  0  0  0  0  0  0  0  0  0
    0.4304   18.8332   -2.1886 H   0  0  0  0  0  0  0  0  0  0  0  0
    1.0078   17.3962   -3.0987 H   0  0  0  0  0  0  0  0  0  0  0  0
   -0.7384   17.8172   -3.0987 H   0  0  0  0  0  0  0  0  0  0  0  0
   -1.0160   16.4630   -1.3466 H   0  0  0  0  0  0  0  0  0  0  0  0
   -1.0735   17.9171    0.3569 H   0  0  0  0  0  0  0  0  0  0  0  0
    0.5548   17.2047    0.7858 H   0  0  0  0  0  0  0  0  0  0  0  0
    1.0454   19.2292   -1.1188 H   0  0  0  0  0  0  0  0  0  0  0  0
   -0.1297   19.9095    0.0831 H   0  0  0  0  0  0  0  0  0  0  0  0
    1.0372   19.2218    1.7284 H   0  0  0  0  0  0  0  0  0  0  0  0
    4.0264   17.1357   -0.2990 H   0  0  0  0  0  0  0  0  0  0  0  0
    2.6341   17.8703   -1.1641 H   0  0  0  0  0  0  0  0  0  0  0  0
    4.2289   18.6969   -1.1641 H   0  0  0  0  0  0  0  0  0  0  0  0
    3.4377   18.7531    2.7858 H   0  0  0  0  0  0  0  0  0  0  0  0
    4.4380   17.5911    1.8500 H   0  0  0  0  0  0  0  0  0  0  0  0
    4.8549   19.3383    1.8500 H   0  0  0  0  0  0  0  0  0  0  0  0
    1.8948   16.4212   -1.6217 H   0  0  0  0  0  0  0  0  0  0  0  0
    2.1238   15.8878    0.7237 H   0  0  0  0  0  0  0  0  0  0  0  0
    0.3967   15.5015    0.8834 H   0  0  0  0  0  0  0  0  0  0  0  0
    2.5193   13.5933    0.7414 H   0  0  0  0  0  0  0  0  0  0  0  0
    0.8179   13.1957    0.5183 H   0  0  0  0  0  0  0  0  0  0  0  0
    3.8561   14.2467   -0.5986 H   0  0  0  0  0  0  0  0  0  0  0  0
    3.9313   13.3269   -2.1397 H   0  0  0  0  0  0  0  0  0  0  0  0
    3.3772   15.0356   -2.1397 H   0  0  0  0  0  0  0  0  0  0  0  0
    0.6725   11.9295   -1.5404 H   0  0  0  0  0  0  0  0  0  0  0  0
    2.8359   11.4018   -0.2458 H   0  0  0  0  0  0  0  0  0  0  0  0
    2.0468   10.1442   -1.3343 H   0  0  0  0  0  0  0  0  0  0  0  0
    4.6749   10.3060   -1.4543 H   0  0  0  0  0  0  0  0  0  0  0  0
    3.4097   13.0265   -4.1560 H   0  0  0  0  0  0  0  0  0  0  0  0
    2.7788   10.3058   -5.4577 H   0  0  0  0  0  0  0  0  0  0  0  0
    2.4460   11.9537   -6.1537 H   0  0  0  0  0  0  0  0  0  0  0  0
    4.4436   10.8972   -7.1607 H   0  0  0  0  0  0  0  0  0  0  0  0
    4.8247   12.4207   -6.2660 H   0  0  0  0  0  0  0  0  0  0  0  0
    6.5082   10.7879   -5.7591 H   0  0  0  0  0  0  0  0  0  0  0  0
    5.9990    8.7310   -5.1930 H   0  0  0  0  0  0  0  0  0  0  0  0
    6.4013   12.8832   -2.8036 H   0  0  0  0  0  0  0  0  0  0  0  0
    7.2193   12.5123   -4.3592 H   0  0  0  0  0  0  0  0  0  0  0  0
    5.5917   13.2722   -4.3592 H   0  0  0  0  0  0  0  0  0  0  0  0
    6.3947   10.3734   -1.9803 H   0  0  0  0  0  0  0  0  0  0  0  0
    6.3376    9.1748   -3.3170 H   0  0  0  0  0  0  0  0  0  0  0  0
    7.5915   10.4610   -3.3170 H   0  0  0  0  0  0  0  0  0  0  0  0
    0.5544   10.2550   -2.8815 H   0  0  0  0  0  0  0  0  0  0  0  0
   -0.0335   11.0137   -4.3999 H   0  0  0  0  0  0  0  0  0  0  0  0
    1.4967   10.0727   -4.3999 H   0  0  0  0  0  0  0  0  0  0  0  0
    1.2126   13.3157   -5.1885 H   0  0  0  0  0  0  0  0  0  0  0  0
   -0.1910   12.9875   -4.0237 H   0  0  0  0  0  0  0  0  0  0  0  0
    2.0509   15.0006   -3.6968 H   0  0  0  0  0  0  0  0  0  0  0  0
    0.2850   15.3059   -3.9324 H   0  0  0  0  0  0  0  0  0  0  0  0
   -0.8571   14.0419   -0.6583 H   0  0  0  0  0  0  0  0  0  0  0  0
   -1.3546   14.8283   -2.1949 H   0  0  0  0  0  0  0  0  0  0  0  0
   -0.8243   13.1120   -2.1949 H   0  0  0  0  0  0  0  0  0  0  0  0
  1  2  1  0
  2  3  1  0
  3  4  1  0
  4  5  1  0
  5  6  1  0
  6  7  1  0
  7  8  1  0
  7  9  1  0
  2 10  1  0
 10 11  1  0
 11 12  1  0
 12 13  1  0
 13 14  1  1
 13 15  1  0
 15 16  1  0
 16 17  1  0
 17 18  2  0
 18 19  1  0
 19 20  1  0
 20 21  1  0
 21 22  1  0
 22 23  1  0
 22 24  1  0
 24 25  1  0
 24 26  1  0
 19 27  1  0
 27 28  1  1
 27 29  1  0
 29 30  1  0
 30 31  1  0
 31 32  1  6
  7  5  1  0
 31 10  1  0
 31 13  1  0
 27 15  1  0
 24 18  1  0
  1 33  1  0
  1 34  1  0
  1 35  1  0
  2 36  1  6
  3 37  1  0
  3 38  1  0
  4 39  1  0
  4 40  1  0
  5 41  1  1
  8 42  1  0
  8 43  1  0
  8 44  1  0
  9 45  1  0
  9 46  1  0
  9 47  1  0
 10 48  1  6
 11 49  1  0
 11 50  1  0
 12 51  1  0
 12 52  1  0
 14 53  1  0
 14 54  1  0
 14 55  1  0
 15 56  1  1
 16 57  1  0
 16 58  1  0
 17 59  1  0
 19 60  1  6
 20 61  1  0
 20 62  1  0
 21 63  1  0
 21 64  1  0
 22 65  1  6
 23 66  1  0
 25 67  1  0
 25 68  1  0
 25 69  1  0
 26 70  1  0
 26 71  1  0
 26 72  1  0
 28 73  1  0
 28 74  1  0
 28 75  1  0
 29 76  1  0
 29 77  1  0
 30 78  1  0
 30 79  1  0
 32 80  1  0
 32 81  1  0
 32 82  1  0
M  END
>  <meeko>  (9) 
{"is_sidechain": [false], "intermolecular_energy": 2.731, "internal_energy": -0.839}

$$$$
EPH_relaxed_0001_pdb2pqr_Repair_227_r2_0001_out
     RDKit          3D

 82 86  0  0  0  0  0  0  0  0999 V2000
    2.7500   18.1910   -3.7710 C   0  0  0  0  0  0  0  0  0  0  0  0
    1.9510   17.9870   -2.4800 C   0  0  2  0  0  0  0  0  0  0  0  0
    2.2350   19.0890   -1.4410 C   0  0  0  0  0  0  0  0  0  0  0  0
    1.1750   20.1940   -1.4100 C   0  0  0  0  0  0  0  0  0  0  0  0
   -0.0210   19.7930   -0.6010 C   0  0  2  0  0  0  0  0  0  0  0  0
   -0.6590   18.5840   -1.0340 O   0  0  0  0  0  0  0  0  0  0  0  0
   -1.4370   19.7870   -1.1460 C   0  0  0  0  0  0  0  0  0  0  0  0
   -1.7310   20.1920   -2.5570 C   0  0  0  0  0  0  0  0  0  0  0  0
   -2.5760   19.8600   -0.1790 C   0  0  0  0  0  0  0  0  0  0  0  0
    2.2640   16.6180   -1.8870 C   0  0  1  0  0  0  0  0  0  0  0  0
    2.9690   16.7120   -0.5080 C   0  0  0  0  0  0  0  0  0  0  0  0
    2.4590   15.5170    0.3380 C   0  0  0  0  0  0  0  0  0  0  0  0
    1.7430   14.5970   -0.6780 C   0  0  1  0  0  0  0  0  0  0  0  0
    2.8890   13.7870   -1.3620 C   0  0  0  0  0  0  0  0  0  0  0  0
    0.6370   13.6560   -0.0990 C   0  0  2  0  0  0  0  0  0  0  0  0
    1.1320   12.6220    0.9270 C   0  0  0  0  0  0  0  0  0  0  0  0
    1.5540   11.3090    0.3560 C   0  0  0  0  0  0  0  0  0  0  0  0
    1.2740   10.8690   -0.8850 C   0  0  0  0  0  0  0  0  0  0  0  0
    0.3750   11.6830   -1.8250 C   0  0  1  0  0  0  0  0  0  0  0  0
   -0.6700   10.7440   -2.4830 C   0  0  0  0  0  0  0  0  0  0  0  0
   -0.0270    9.5500   -3.1810 C   0  0  0  0  0  0  0  0  0  0  0  0
    0.8120    8.7330   -2.2010 C   0  0  2  0  0  0  0  0  0  0  0  0
   -0.0600    8.1300   -1.2400 O   0  0  0  0  0  0  0  0  0  0  0  0
    1.8940    9.5760   -1.4690 C   0  0  0  0  0  0  0  0  0  0  0  0
    3.0050    9.9780   -2.4700 C   0  0  0  0  0  0  0  0  0  0  0  0
    2.5720    8.6660   -0.4100 C   0  0  0  0  0  0  0  0  0  0  0  0
   -0.2840   12.9860   -1.1980 C   0  0  1  0  0  0  0  0  0  0  0  0
   -1.6240   12.6170   -0.4900 C   0  0  0  0  0  0  0  0  0  0  0  0
   -0.6550   13.9840   -2.3580 C   0  0  0  0  0  0  0  0  0  0  0  0
    0.4430   14.9690   -2.8040 C   0  0  0  0  0  0  0  0  0  0  0  0
    1.0670   15.6780   -1.5980 C   0  0  2  0  0  0  0  0  0  0  0  0
   -0.0580   16.5190   -0.9030 C   0  0  0  0  0  0  0  0  0  0  0  0
    3.7881   18.4560   -3.5217 H   0  0  0  0  0  0  0  0  0  0  0  0
    2.7400   17.2615   -4.3591 H   0  0  0  0  0  0  0  0  0  0  0  0
    2.2956   19.0019   -4.3591 H   0  0  0  0  0  0  0  0  0  0  0  0
    0.8834   18.0453   -2.7384 H   0  0  0  0  0  0  0  0  0  0  0  0
    2.2810   18.6239   -0.4452 H   0  0  0  0  0  0  0  0  0  0  0  0
    3.1854   19.5632   -1.7271 H   0  0  0  0  0  0  0  0  0  0  0  0
    1.6168   21.0993   -0.9682 H   0  0  0  0  0  0  0  0  0  0  0  0
    0.8437   20.3801   -2.4423 H   0  0  0  0  0  0  0  0  0  0  0  0
    0.4178   20.2313    0.3075 H   0  0  0  0  0  0  0  0  0  0  0  0
   -2.3772   21.0822   -2.5559 H   0  0  0  0  0  0  0  0  0  0  0  0
   -0.7891   20.4233   -3.0759 H   0  0  0  0  0  0  0  0  0  0  0  0
   -2.2427   19.3681   -3.0759 H   0  0  0  0  0  0  0  0  0  0  0  0
   -2.1861   19.8350    0.8493 H   0  0  0  0  0  0  0  0  0  0  0  0
   -3.1323   20.7956   -0.3376 H   0  0  0  0  0  0  0  0  0  0  0  0
   -3.2471   19.0030   -0.3376 H   0  0  0  0  0  0  0  0  0  0  0  0
    2.8819   16.2028   -2.6968 H   0  0  0  0  0  0  0  0  0  0  0  0
    4.0597   16.6478   -0.6351 H   0  0  0  0  0  0  0  0  0  0  0  0
    2.7449   17.6692   -0.0145 H   0  0  0  0  0  0  0  0  0  0  0  0
    3.3000   14.9906    0.8130 H   0  0  0  0  0  0  0  0  0  0  0  0
    1.7927   15.8370    1.1527 H   0  0  0  0  0  0  0  0  0  0  0  0
    3.5292   13.3345   -0.5904 H   0  0  0  0  0  0  0  0  0  0  0  0
    2.4542   12.9945   -1.9888 H   0  0  0  0  0  0  0  0  0  0  0  0
    3.4910   14.4613   -1.9888 H   0  0  0  0  0  0  0  0  0  0  0  0
    0.0028   14.3557    0.4651 H   0  0  0  0  0  0  0  0  0  0  0  0
    1.9932   13.0546    1.4572 H   0  0  0  0  0  0  0  0  0  0  0  0
    0.2741   12.4077    1.5814 H   0  0  0  0  0  0  0  0  0  0  0  0
    2.1439   10.6445    1.0044 H   0  0  0  0  0  0  0  0  0  0  0  0
    1.0393   12.1006   -2.5959 H   0  0  0  0  0  0  0  0  0  0  0  0
   -1.3502   10.3718   -1.7027 H   0  0  0  0  0  0  0  0  0  0  0  0
   -1.2081   11.3261   -3.2456 H   0  0  0  0  0  0  0  0  0  0  0  0
   -0.8170    8.9094   -3.5999 H   0  0  0  0  0  0  0  0  0  0  0  0
    0.6300    9.9224   -3.9808 H   0  0  0  0  0  0  0  0  0  0  0  0
    1.3502    7.9705   -2.7831 H   0  0  0  0  0  0  0  0  0  0  0  0
    0.1400    8.5240   -0.3740 H   0  0  0  0  0  0  0  0  0  0  0  0
    3.8985   10.3013   -1.9157 H   0  0  0  0  0  0  0  0  0  0  0  0
    3.2585    9.1146   -3.1027 H   0  0  0  0  0  0  0  0  0  0  0  0
    2.6473   10.8037   -3.1027 H   0  0  0  0  0  0  0  0  0  0  0  0
    2.3094    9.0184    0.5984 H   0  0  0  0  0  0  0  0  0  0  0  0
    2.2233    7.6307   -0.5389 H   0  0  0  0  0  0  0  0  0  0  0  0
    3.6638    8.7039   -0.5389 H   0  0  0  0  0  0  0  0  0  0  0  0
   -1.4851   12.6552    0.6005 H   0  0  0  0  0  0  0  0  0  0  0  0
   -2.4044   13.3337   -0.7856 H   0  0  0  0  0  0  0  0  0  0  0  0
   -1.9275   11.6019   -0.7856 H   0  0  0  0  0  0  0  0  0  0  0  0
   -0.9402   13.3841   -3.2348 H   0  0  0  0  0  0  0  0  0  0  0  0
   -1.4589   14.6142   -1.9498 H   0  0  0  0  0  0  0  0  0  0  0  0
    1.2270   14.4148   -3.3408 H   0  0  0  0  0  0  0  0  0  0  0  0
   -0.0110   15.7266   -3.4597 H   0  0  0  0  0  0  0  0  0  0  0  0
    0.0472   16.4404    0.1891 H   0  0  0  0  0  0  0  0  0  0  0  0
    0.0324   17.5728   -1.2052 H   0  0  0  0  0  0  0  0  0  0  0  0
   -1.0432   16.1341   -1.2052 H   0  0  0  0  0  0  0  0  0  0  0  0
  1  2  1  0
  2  3  1  0
  3  4  1  0
  4  5  1  0
  5  6  1  0
  6  7  1  0
  7  8  1  0
  7  9  1  0
  2 10  1  0
 10 11  1  0
 11 12  1  0
 12 13  1  0
 13 14  1  6
 13 15  1  0
 15 16  1  0
 16 17  1  0
 17 18  2  0
 18 19  1  0
 19 20  1  0
 20 21  1  0
 21 22  1  0
 22 23  1  0
 22 24  1  0
 24 25  1  0
 24 26  1  0
 19 27  1  0
 27 28  1  1
 27 29  1  0
 29 30  1  0
 30 31  1  0
 31 32  1  1
  7  5  1  0
 31 10  1  0
 31 13  1  0
 27 15  1  0
 24 18  1  0
  1 33  1  0
  1 34  1  0
  1 35  1  0
  2 36  1  6
  3 37  1  0
  3 38  1  0
  4 39  1  0
  4 40  1  0
  5 41  1  1
  8 42  1  0
  8 43  1  0
  8 44  1  0
  9 45  1  0
  9 46  1  0
  9 47  1  0
 10 48  1  6
 11 49  1  0
 11 50  1  0
 12 51  1  0
 12 52  1  0
 14 53  1  0
 14 54  1  0
 14 55  1  0
 15 56  1  1
 16 57  1  0
 16 58  1  0
 17 59  1  0
 19 60  1  6
 20 61  1  0
 20 62  1  0
 21 63  1  0
 21 64  1  0
 22 65  1  6
 23 66  1  0
 25 67  1  0
 25 68  1  0
 25 69  1  0
 26 70  1  0
 26 71  1  0
 26 72  1  0
 28 73  1  0
 28 74  1  0
 28 75  1  0
 29 76  1  0
 29 77  1  0
 30 78  1  0
 30 79  1  0
 32 80  1  0
 32 81  1  0
 32 82  1  0
M  END
>  <meeko>  (10) 
{"is_sidechain": [false], "intermolecular_energy": 2.731, "internal_energy": -0.839}

$$$$
EPH_relaxed_0001_pdb2pqr_Repair_227_r2_0001_out
     RDKit          3D

 82 86  0  0  0  0  0  0  0  0999 V2000
    0.0080    9.3080   -2.2530 C   0  0  0  0  0  0  0  0  0  0  0  0
    1.0670   10.3070   -2.7260 C   0  0  2  0  0  0  0  0  0  0  0  0
    2.4680    9.6700   -2.8180 C   0  0  0  0  0  0  0  0  0  0  0  0
    3.3690   10.3130   -3.8760 C   0  0  0  0  0  0  0  0  0  0  0  0
    4.7430   10.5850   -3.3420 C   0  0  2  0  0  0  0  0  0  0  0  0
    5.3010   11.8450   -3.7400 O   0  0  0  0  0  0  0  0  0  0  0  0
    5.9790   10.6720   -4.2180 C   0  0  0  0  0  0  0  0  0  0  0  0
    5.8990   10.4850   -5.7010 C   0  0  0  0  0  0  0  0  0  0  0  0
    7.3190   10.4510   -3.5890 C   0  0  0  0  0  0  0  0  0  0  0  0
    1.1020   11.5100   -1.7900 C   0  0  1  0  0  0  0  0  0  0  0  0
    2.1680   11.3650   -0.6710 C   0  0  0  0  0  0  0  0  0  0  0  0
    2.7300   12.7840   -0.4020 C   0  0  0  0  0  0  0  0  0  0  0  0
    1.7500   13.7360   -1.1270 C   0  0  1  0  0  0  0  0  0  0  0  0
    0.5440   13.8910   -0.1480 C   0  0  0  0  0  0  0  0  0  0  0  0
    2.3260   15.1240   -1.5580 C   0  0  2  0  0  0  0  0  0  0  0  0
    2.7970   16.0220   -0.4020 C   0  0  0  0  0  0  0  0  0  0  0  0
    1.7610   16.9410    0.1560 C   0  0  0  0  0  0  0  0  0  0  0  0
    0.5900   17.2470   -0.4320 C   0  0  0  0  0  0  0  0  0  0  0  0
    0.2520   16.7250   -1.8340 C   0  0  1  0  0  0  0  0  0  0  0  0
   -0.3100   17.8850   -2.6970 C   0  0  0  0  0  0  0  0  0  0  0  0
   -1.4920   18.5870   -2.0360 C   0  0  0  0  0  0  0  0  0  0  0  0
   -1.1010   19.1430   -0.6690 C   0  0  2  0  0  0  0  0  0  0  0  0
   -0.1480   20.1950   -0.8550 O   0  0  0  0  0  0  0  0  0  0  0  0
   -0.5120   18.0670    0.2850 C   0  0  0  0  0  0  0  0  0  0  0  0
   -1.6320   17.0930    0.7260 C   0  0  0  0  0  0  0  0  0  0  0  0
   -0.0280   18.7840    1.5740 C   0  0  0  0  0  0  0  0  0  0  0  0
    1.4070   15.9200   -2.5710 C   0  0  1  0  0  0  0  0  0  0  0  0
    2.3400   16.9090   -3.3350 C   0  0  0  0  0  0  0  0  0  0  0  0
    0.7660   14.9830   -3.6620 C   0  0  0  0  0  0  0  0  0  0  0  0
    0.3260   13.5800   -3.2000 C   0  0  0  0  0  0  0  0  0  0  0  0
    1.4430   12.8860   -2.4140 C   0  0  2  0  0  0  0  0  0  0  0  0
    2.6610   12.6960   -3.3800 C   0  0  0  0  0  0  0  0  0  0  0  0
   -0.0126    9.2886   -1.1534 H   0  0  0  0  0  0  0  0  0  0  0  0
   -0.9785    9.6121   -2.6329 H   0  0  0  0  0  0  0  0  0  0  0  0
    0.2541    8.3054   -2.6329 H   0  0  0  0  0  0  0  0  0  0  0  0
    0.7856   10.6316   -3.7386 H   0  0  0  0  0  0  0  0  0  0  0  0
    2.9587    9.7676   -1.8384 H   0  0  0  0  0  0  0  0  0  0  0  0
    2.3247    8.6201   -3.1133 H   0  0  0  0  0  0  0  0  0  0  0  0
    3.4492    9.6331   -4.7370 H   0  0  0  0  0  0  0  0  0  0  0  0
    2.9198   11.2724   -4.1722 H   0  0  0  0  0  0  0  0  0  0  0  0
    4.5261   10.0148   -2.4266 H   0  0  0  0  0  0  0  0  0  0  0  0
    5.4753    9.4945   -5.9233 H   0  0  0  0  0  0  0  0  0  0  0  0
    5.2557   11.2648   -6.1347 H   0  0  0  0  0  0  0  0  0  0  0  0
    6.9072   10.5583   -6.1347 H   0  0  0  0  0  0  0  0  0  0  0  0
    7.2172   10.4678   -2.4938 H   0  0  0  0  0  0  0  0  0  0  0  0
    7.7161    9.4752   -3.9054 H   0  0  0  0  0  0  0  0  0  0  0  0
    8.0085   11.2476   -3.9054 H   0  0  0  0  0  0  0  0  0  0  0  0
    0.0589   11.5030   -1.4408 H   0  0  0  0  0  0  0  0  0  0  0  0
    1.7062   10.9612    0.2420 H   0  0  0  0  0  0  0  0  0  0  0  0
    2.9684   10.6744   -0.9752 H   0  0  0  0  0  0  0  0  0  0  0  0
    2.7499   12.9956    0.6773 H   0  0  0  0  0  0  0  0  0  0  0  0
    3.7638   12.8979   -0.7601 H   0  0  0  0  0  0  0  0  0  0  0  0
    0.9058   13.8445    0.8897 H   0  0  0  0  0  0  0  0  0  0  0  0
    0.0527   14.8597   -0.3219 H   0  0  0  0  0  0  0  0  0  0  0  0
   -0.1763   13.0780   -0.3219 H   0  0  0  0  0  0  0  0  0  0  0  0
    3.2367   14.8419   -2.1067 H   0  0  0  0  0  0  0  0  0  0  0  0
    3.1479   15.3712    0.4124 H   0  0  0  0  0  0  0  0  0  0  0  0
    3.5829   16.6682   -0.8201 H   0  0  0  0  0  0  0  0  0  0  0  0
    1.9728   17.4071    1.1296 H   0  0  0  0  0  0  0  0  0  0  0  0
   -0.5217   15.9557   -1.6938 H   0  0  0  0  0  0  0  0  0  0  0  0
    0.4902   18.6215   -2.8617 H   0  0  0  0  0  0  0  0  0  0  0  0
   -0.6653   17.4540   -3.6446 H   0  0  0  0  0  0  0  0  0  0  0  0
   -1.8250   19.4147   -2.6795 H   0  0  0  0  0  0  0  0  0  0  0  0
   -2.3027   17.8563   -1.8992 H   0  0  0  0  0  0  0  0  0  0  0  0
   -2.0181   19.5172   -0.1905 H   0  0  0  0  0  0  0  0  0  0  0  0
    0.2440   20.3930    0.0120 H   0  0  0  0  0  0  0  0  0  0  0  0
   -1.6743   17.0562    1.8246 H   0  0  0  0  0  0  0  0  0  0  0  0
   -2.5980   17.4432    0.3334 H   0  0  0  0  0  0  0  0  0  0  0  0
   -1.4193   16.0877    0.3334 H   0  0  0  0  0  0  0  0  0  0  0  0
   -0.3955   18.2396    2.4564 H   0  0  0  0  0  0  0  0  0  0  0  0
    1.0716   18.8077    1.5895 H   0  0  0  0  0  0  0  0  0  0  0  0
   -0.4172   19.8127    1.5895 H   0  0  0  0  0  0  0  0  0  0  0  0
    2.9080   17.5111   -2.6105 H   0  0  0  0  0  0  0  0  0  0  0  0
    3.0384   16.3404   -3.9667 H   0  0  0  0  0  0  0  0  0  0  0  0
    1.7317   17.5731   -3.9667 H   0  0  0  0  0  0  0  0  0  0  0  0
   -0.1215   15.4956   -4.0613 H   0  0  0  0  0  0  0  0  0  0  0  0
    1.5656   14.8070   -4.3967 H   0  0  0  0  0  0  0  0  0  0  0  0
   -0.5613   13.6748   -2.5567 H   0  0  0  0  0  0  0  0  0  0  0  0
    0.0944   12.9747   -4.0888 H   0  0  0  0  0  0  0  0  0  0  0  0
    3.5782   12.5529   -2.7898 H   0  0  0  0  0  0  0  0  0  0  0  0
    2.4917   11.8134   -4.0143 H   0  0  0  0  0  0  0  0  0  0  0  0
    2.7686   13.5882   -4.0143 H   0  0  0  0  0  0  0  0  0  0  0  0
  1  2  1  0
  2  3  1  0
  3  4  1  0
  4  5  1  0
  5  6  1  0
  6  7  1  0
  7  8  1  0
  7  9  1  0
  2 10  1  0
 10 11  1  0
 11 12  1  0
 12 13  1  0
 13 14  1  1
 13 15  1  0
 15 16  1  0
 16 17  1  0
 17 18  2  0
 18 19  1  0
 19 20  1  0
 20 21  1  0
 21 22  1  0
 22 23  1  0
 22 24  1  0
 24 25  1  0
 24 26  1  0
 19 27  1  0
 27 28  1  6
 27 29  1  0
 29 30  1  0
 30 31  1  0
 31 32  1  6
  7  5  1  0
 31 10  1  0
 31 13  1  0
 27 15  1  0
 24 18  1  0
  1 33  1  0
  1 34  1  0
  1 35  1  0
  2 36  1  6
  3 37  1  0
  3 38  1  0
  4 39  1  0
  4 40  1  0
  5 41  1  1
  8 42  1  0
  8 43  1  0
  8 44  1  0
  9 45  1  0
  9 46  1  0
  9 47  1  0
 10 48  1  1
 11 49  1  0
 11 50  1  0
 12 51  1  0
 12 52  1  0
 14 53  1  0
 14 54  1  0
 14 55  1  0
 15 56  1  6
 16 57  1  0
 16 58  1  0
 17 59  1  0
 19 60  1  1
 20 61  1  0
 20 62  1  0
 21 63  1  0
 21 64  1  0
 22 65  1  1
 23 66  1  0
 25 67  1  0
 25 68  1  0
 25 69  1  0
 26 70  1  0
 26 71  1  0
 26 72  1  0
 28 73  1  0
 28 74  1  0
 28 75  1  0
 29 76  1  0
 29 77  1  0
 30 78  1  0
 30 79  1  0
 32 80  1  0
 32 81  1  0
 32 82  1  0
M  END
>  <meeko>  (11) 
{"is_sidechain": [false], "intermolecular_energy": 2.731, "internal_energy": -0.839}

$$$$
EPH_relaxed_0001_pdb2pqr_Repair_227_r2_0001_out
     RDKit          3D

 82 86  0  0  0  0  0  0  0  0999 V2000
   -4.9930    8.8270    0.0000 C   0  0  0  0  0  0  0  0  0  0  0  0
   -5.2270    7.7250   -1.0360 C   0  0  2  0  0  0  0  0  0  0  0  0
   -4.1550    7.7330   -2.1440 C   0  0  0  0  0  0  0  0  0  0  0  0
   -2.7230    7.8430   -1.6150 C   0  0  0  0  0  0  0  0  0  0  0  0
   -2.1500    9.2080   -1.8470 C   0  0  2  0  0  0  0  0  0  0  0  0
   -0.8580    9.2170   -2.4680 O   0  0  0  0  0  0  0  0  0  0  0  0
   -0.9200    9.7320   -1.1280 C   0  0  0  0  0  0  0  0  0  0  0  0
   -0.1900    8.8990   -0.1220 C   0  0  0  0  0  0  0  0  0  0  0  0
   -0.7190   11.2130   -1.0410 C   0  0  0  0  0  0  0  0  0  0  0  0
   -6.6140    7.8750   -1.6510 C   0  0  1  0  0  0  0  0  0  0  0  0
   -6.7250    7.2030   -3.0450 C   0  0  0  0  0  0  0  0  0  0  0  0
   -8.1640    6.6370   -3.1560 C   0  0  0  0  0  0  0  0  0  0  0  0
   -8.9280    7.2820   -1.9760 C   0  0  1  0  0  0  0  0  0  0  0  0
   -9.3150    8.7080   -2.4810 C   0  0  0  0  0  0  0  0  0  0  0  0
  -10.1740    6.4980   -1.4490 C   0  0  2  0  0  0  0  0  0  0  0  0
  -11.3130    6.3220   -2.4690 C   0  0  0  0  0  0  0  0  0  0  0  0
  -12.3430    7.4020   -2.4670 C   0  0  0  0  0  0  0  0  0  0  0  0
  -12.5140    8.3190   -1.4970 C   0  0  0  0  0  0  0  0  0  0  0  0
  -11.6820    8.2670   -0.2090 C   0  0  1  0  0  0  0  0  0  0  0  0
  -12.6140    8.4560    1.0170 C   0  0  0  0  0  0  0  0  0  0  0  0
  -13.4590    9.7230    0.9190 C   0  0  0  0  0  0  0  0  0  0  0  0
  -14.3140    9.7120   -0.3450 C   0  0  2  0  0  0  0  0  0  0  0  0
  -15.2870    8.6680   -0.2340 O   0  0  0  0  0  0  0  0  0  0  0  0
  -13.4850    9.5170   -1.6450 C   0  0  0  0  0  0  0  0  0  0  0  0
  -12.6480   10.7900   -1.9240 C   0  0  0  0  0  0  0  0  0  0  0  0
  -14.4780    9.3820   -2.8300 C   0  0  0  0  0  0  0  0  0  0  0  0
  -10.7200    7.0110   -0.0550 C   0  0  1  0  0  0  0  0  0  0  0  0
  -11.4980    5.8200    0.5830 C   0  0  0  0  0  0  0  0  0  0  0  0
   -9.5600    7.3720    0.9460 C   0  0  0  0  0  0  0  0  0  0  0  0
   -8.3060    8.0360    0.3460 C   0  0  0  0  0  0  0  0  0  0  0  0
   -7.8060    7.2590   -0.8760 C   0  0  2  0  0  0  0  0  0  0  0  0
   -7.3880    5.8280   -0.3950 C   0  0  0  0  0  0  0  0  0  0  0  0
   -5.0828    8.4043    1.0116 H   0  0  0  0  0  0  0  0  0  0  0  0
   -3.9855    9.2478   -0.1335 H   0  0  0  0  0  0  0  0  0  0  0  0
   -5.7426    9.6209   -0.1335 H   0  0  0  0  0  0  0  0  0  0  0  0
   -5.1549    6.7594   -0.5141 H   0  0  0  0  0  0  0  0  0  0  0  0
   -4.2422    6.7987   -2.7181 H   0  0  0  0  0  0  0  0  0  0  0  0
   -4.3384    8.6244   -2.7618 H   0  0  0  0  0  0  0  0  0  0  0  0
   -2.7252    7.6362   -0.5346 H   0  0  0  0  0  0  0  0  0  0  0  0
   -2.1010    7.1137   -2.1546 H   0  0  0  0  0  0  0  0  0  0  0  0
   -3.1547    9.6309   -1.9946 H   0  0  0  0  0  0  0  0  0  0  0  0
   -0.4707    9.2193    0.8922 H   0  0  0  0  0  0  0  0  0  0  0  0
   -0.4568    7.8407   -0.2593 H   0  0  0  0  0  0  0  0  0  0  0  0
    0.8941    9.0246   -0.2593 H   0  0  0  0  0  0  0  0  0  0  0  0
   -0.6779   11.5160    0.0156 H   0  0  0  0  0  0  0  0  0  0  0  0
    0.2243   11.4848   -1.5374 H   0  0  0  0  0  0  0  0  0  0  0  0
   -1.5557   11.7264   -1.5374 H   0  0  0  0  0  0  0  0  0  0  0  0
   -6.6954    8.9720   -1.6570 H   0  0  0  0  0  0  0  0  0  0  0  0
   -6.5474    7.9444   -3.8380 H   0  0  0  0  0  0  0  0  0  0  0  0
   -5.9769    6.4046   -3.1590 H   0  0  0  0  0  0  0  0  0  0  0  0
   -8.6202    6.9210   -4.1158 H   0  0  0  0  0  0  0  0  0  0  0  0
   -8.1846    5.5379   -3.1158 H   0  0  0  0  0  0  0  0  0  0  0  0
   -9.4937    9.3665   -1.6182 H   0  0  0  0  0  0  0  0  0  0  0  0
   -8.4952    9.1162   -3.0903 H   0  0  0  0  0  0  0  0  0  0  0  0
  -10.2287    8.6458   -3.0903 H   0  0  0  0  0  0  0  0  0  0  0  0
   -9.7657    5.4906   -1.2805 H   0  0  0  0  0  0  0  0  0  0  0  0
  -10.8664    6.2801   -3.4734 H   0  0  0  0  0  0  0  0  0  0  0  0
  -11.8388    5.3995   -2.1819 H   0  0  0  0  0  0  0  0  0  0  0  0
  -13.0202    7.4528   -3.3323 H   0  0  0  0  0  0  0  0  0  0  0  0
  -10.9719    9.1048   -0.2718 H   0  0  0  0  0  0  0  0  0  0  0  0
  -13.2863    7.5881    1.0862 H   0  0  0  0  0  0  0  0  0  0  0  0
  -11.9777    8.5469    1.9097 H   0  0  0  0  0  0  0  0  0  0  0  0
  -14.1171    9.7857    1.7982 H   0  0  0  0  0  0  0  0  0  0  0  0
  -12.7856   10.5919    0.8798 H   0  0  0  0  0  0  0  0  0  0  0  0
  -14.7954   10.6978   -0.4256 H   0  0  0  0  0  0  0  0  0  0  0  0
  -15.2160    8.2940    0.6610 H   0  0  0  0  0  0  0  0  0  0  0  0
  -12.3472   11.2475   -0.9699 H   0  0  0  0  0  0  0  0  0  0  0  0
  -11.7507   10.5199   -2.5001 H   0  0  0  0  0  0  0  0  0  0  0  0
  -13.2516   11.5067   -2.5001 H   0  0  0  0  0  0  0  0  0  0  0  0
  -15.4973    9.2434   -2.4403 H   0  0  0  0  0  0  0  0  0  0  0  0
  -14.4413   10.2934   -3.4448 H   0  0  0  0  0  0  0  0  0  0  0  0
  -14.1993    8.5135   -3.4448 H   0  0  0  0  0  0  0  0  0  0  0  0
  -11.4489    5.8952    1.6793 H   0  0  0  0  0  0  0  0  0  0  0  0
  -12.5489    5.8534    0.2599 H   0  0  0  0  0  0  0  0  0  0  0  0
  -11.0451    4.8711    0.2599 H   0  0  0  0  0  0  0  0  0  0  0  0
   -9.9724    8.0594    1.6992 H   0  0  0  0  0  0  0  0  0  0  0  0
   -9.2123    6.4071    1.3436 H   0  0  0  0  0  0  0  0  0  0  0  0
   -8.5534    9.0639    0.0424 H   0  0  0  0  0  0  0  0  0  0  0  0
   -7.5126    8.0401    1.1079 H   0  0  0  0  0  0  0  0  0  0  0  0
   -7.3794    5.7987    0.7046 H   0  0  0  0  0  0  0  0  0  0  0  0
   -8.1076    5.0884   -0.7759 H   0  0  0  0  0  0  0  0  0  0  0  0
   -6.3834    5.5920   -0.7759 H   0  0  0  0  0  0  0  0  0  0  0  0
  1  2  1  0
  2  3  1  0
  3  4  1  0
  4  5  1  0
  5  6  1  0
  6  7  1  0
  7  8  1  0
  7  9  1  0
  2 10  1  0
 10 11  1  0
 11 12  1  0
 12 13  1  0
 13 14  1  6
 13 15  1  0
 15 16  1  0
 16 17  1  0
 17 18  2  0
 18 19  1  0
 19 20  1  0
 20 21  1  0
 21 22  1  0
 22 23  1  0
 22 24  1  0
 24 25  1  0
 24 26  1  0
 19 27  1  0
 27 28  1  1
 27 29  1  0
 29 30  1  0
 30 31  1  0
 31 32  1  1
  7  5  1  0
 31 10  1  0
 31 13  1  0
 27 15  1  0
 24 18  1  0
  1 33  1  0
  1 34  1  0
  1 35  1  0
  2 36  1  1
  3 37  1  0
  3 38  1  0
  4 39  1  0
  4 40  1  0
  5 41  1  6
  8 42  1  0
  8 43  1  0
  8 44  1  0
  9 45  1  0
  9 46  1  0
  9 47  1  0
 10 48  1  6
 11 49  1  0
 11 50  1  0
 12 51  1  0
 12 52  1  0
 14 53  1  0
 14 54  1  0
 14 55  1  0
 15 56  1  1
 16 57  1  0
 16 58  1  0
 17 59  1  0
 19 60  1  6
 20 61  1  0
 20 62  1  0
 21 63  1  0
 21 64  1  0
 22 65  1  6
 23 66  1  0
 25 67  1  0
 25 68  1  0
 25 69  1  0
 26 70  1  0
 26 71  1  0
 26 72  1  0
 28 73  1  0
 28 74  1  0
 28 75  1  0
 29 76  1  0
 29 77  1  0
 30 78  1  0
 30 79  1  0
 32 80  1  0
 32 81  1  0
 32 82  1  0
M  END
>  <meeko>  (12) 
{"is_sidechain": [false], "intermolecular_energy": 2.731, "internal_energy": -0.839}

$$$$
EPH_relaxed_0001_pdb2pqr_Repair_227_r2_0001_out
     RDKit          3D

 82 86  0  0  0  0  0  0  0  0999 V2000
   -3.7350    7.2250   -3.4340 C   0  0  0  0  0  0  0  0  0  0  0  0
   -3.7450    7.2890   -1.9040 C   0  0  2  0  0  0  0  0  0  0  0  0
   -5.1540    7.0560   -1.3220 C   0  0  0  0  0  0  0  0  0  0  0  0
   -6.2780    7.2130   -2.3500 C   0  0  0  0  0  0  0  0  0  0  0  0
   -7.6020    7.4540   -1.6900 C   0  0  2  0  0  0  0  0  0  0  0  0
   -8.2110    6.2860   -1.1260 O   0  0  0  0  0  0  0  0  0  0  0  0
   -8.9120    6.9010   -2.2180 C   0  0  0  0  0  0  0  0  0  0  0  0
   -8.9630    6.0640   -3.4580 C   0  0  0  0  0  0  0  0  0  0  0  0
  -10.1870    7.5730   -1.8140 C   0  0  0  0  0  0  0  0  0  0  0  0
   -3.2040    8.6350   -1.4370 C   0  0  1  0  0  0  0  0  0  0  0  0
   -3.8270    9.0950   -0.0920 C   0  0  0  0  0  0  0  0  0  0  0  0
   -2.7150    9.8490    0.6820 C   0  0  0  0  0  0  0  0  0  0  0  0
   -1.6040   10.0870   -0.3670 C   0  0  1  0  0  0  0  0  0  0  0  0
   -2.0710   11.3420   -1.1690 C   0  0  0  0  0  0  0  0  0  0  0  0
   -0.1540   10.2660    0.1910 C   0  0  2  0  0  0  0  0  0  0  0  0
    0.0470   11.4870    1.1060 C   0  0  0  0  0  0  0  0  0  0  0  0
    0.4600   12.7430    0.4130 C   0  0  0  0  0  0  0  0  0  0  0  0
    0.9380   12.8210   -0.8430 C   0  0  0  0  0  0  0  0  0  0  0  0
    1.1950   11.5540   -1.6690 C   0  0  1  0  0  0  0  0  0  0  0  0
    2.5870   11.6510   -2.3460 C   0  0  0  0  0  0  0  0  0  0  0  0
    2.7520   12.9260   -3.1670 C   0  0  0  0  0  0  0  0  0  0  0  0
    2.5460   14.1640   -2.2980 C   0  0  2  0  0  0  0  0  0  0  0  0
    3.6110   14.2400   -1.3450 O   0  0  0  0  0  0  0  0  0  0  0  0
    1.1800   14.1740   -1.5580 C   0  0  0  0  0  0  0  0  0  0  0  0
    0.0360   14.3950   -2.5790 C   0  0  0  0  0  0  0  0  0  0  0  0
    1.1590   15.4030   -0.6100 C   0  0  0  0  0  0  0  0  0  0  0  0
    0.9800   10.1760   -0.9090 C   0  0  1  0  0  0  0  0  0  0  0  0
    2.2890    9.7680   -0.1660 C   0  0  0  0  0  0  0  0  0  0  0  0
    0.6980    9.0430   -1.9660 C   0  0  0  0  0  0  0  0  0  0  0  0
   -0.7690    8.8360   -2.3880 C   0  0  0  0  0  0  0  0  0  0  0  0
   -1.6820    8.7340   -1.1630 C   0  0  2  0  0  0  0  0  0  0  0  0
   -1.2500    7.4680   -0.3480 C   0  0  0  0  0  0  0  0  0  0  0  0
   -3.5726    6.1859   -3.7565 H   0  0  0  0  0  0  0  0  0  0  0  0
   -4.7000    7.5829   -3.8223 H   0  0  0  0  0  0  0  0  0  0  0  0
   -2.9252    7.8602   -3.8223 H   0  0  0  0  0  0  0  0  0  0  0  0
   -3.0979    6.4799   -1.5345 H   0  0  0  0  0  0  0  0  0  0  0  0
   -5.1968    6.0355   -0.9137 H   0  0  0  0  0  0  0  0  0  0  0  0
   -5.3143    7.8236   -0.5505 H   0  0  0  0  0  0  0  0  0  0  0  0
   -6.0456    8.0655   -3.0051 H   0  0  0  0  0  0  0  0  0  0  0  0
   -6.3474    6.2797   -2.9280 H   0  0  0  0  0  0  0  0  0  0  0  0
   -7.2956    8.4674   -1.3915 H   0  0  0  0  0  0  0  0  0  0  0  0
   -9.0277    5.0015   -3.1808 H   0  0  0  0  0  0  0  0  0  0  0  0
   -9.8459    6.3424   -4.0522 H   0  0  0  0  0  0  0  0  0  0  0  0
   -8.0529    6.2331   -4.0522 H   0  0  0  0  0  0  0  0  0  0  0  0
  -10.2517    7.6071   -0.7164 H   0  0  0  0  0  0  0  0  0  0  0  0
  -10.2044    8.5974   -2.2143 H   0  0  0  0  0  0  0  0  0  0  0  0
  -11.0419    7.0083   -2.2143 H   0  0  0  0  0  0  0  0  0  0  0  0
   -3.4706    9.2526   -2.3074 H   0  0  0  0  0  0  0  0  0  0  0  0
   -4.6792    9.7649   -0.2789 H   0  0  0  0  0  0  0  0  0  0  0  0
   -4.1970    8.2354    0.4861 H   0  0  0  0  0  0  0  0  0  0  0  0
   -3.0931   10.8058    1.0714 H   0  0  0  0  0  0  0  0  0  0  0  0
   -2.3533    9.2813    1.5520 H   0  0  0  0  0  0  0  0  0  0  0  0
   -2.3665   12.1362   -0.4677 H   0  0  0  0  0  0  0  0  0  0  0  0
   -1.2460   11.7003   -1.8023 H   0  0  0  0  0  0  0  0  0  0  0  0
   -2.9295   11.0739   -1.8023 H   0  0  0  0  0  0  0  0  0  0  0  0
   -0.0407    9.3845    0.8392 H   0  0  0  0  0  0  0  0  0  0  0  0
   -0.9027   11.6822    1.6256 H   0  0  0  0  0  0  0  0  0  0  0  0
    0.8745   11.2269    1.7825 H   0  0  0  0  0  0  0  0  0  0  0  0
    0.3659   13.6835    0.9757 H   0  0  0  0  0  0  0  0  0  0  0  0
    0.4081   11.5265   -2.4371 H   0  0  0  0  0  0  0  0  0  0  0  0
    3.3610   11.6324   -1.5646 H   0  0  0  0  0  0  0  0  0  0  0  0
    2.6838   10.7973   -3.0329 H   0  0  0  0  0  0  0  0  0  0  0  0
    3.7653   12.9505   -3.5944 H   0  0  0  0  0  0  0  0  0  0  0  0
    1.9973   12.9288   -3.9672 H   0  0  0  0  0  0  0  0  0  0  0  0
    2.5462   15.0388   -2.9649 H   0  0  0  0  0  0  0  0  0  0  0  0
    4.2690   13.5660   -1.5840 H   0  0  0  0  0  0  0  0  0  0  0  0
   -0.9058   14.5769   -2.0407 H   0  0  0  0  0  0  0  0  0  0  0  0
    0.2711   15.2643   -3.2107 H   0  0  0  0  0  0  0  0  0  0  0  0
   -0.0696   13.5006   -3.2107 H   0  0  0  0  0  0  0  0  0  0  0  0
    1.1649   15.0600    0.4351 H   0  0  0  0  0  0  0  0  0  0  0  0
    2.0466   16.0253   -0.7967 H   0  0  0  0  0  0  0  0  0  0  0  0
    0.2506   15.9946   -0.7967 H   0  0  0  0  0  0  0  0  0  0  0  0
    2.1250    9.8191    0.9205 H   0  0  0  0  0  0  0  0  0  0  0  0
    2.5654    8.7411   -0.4472 H   0  0  0  0  0  0  0  0  0  0  0  0
    3.0999   10.4560   -0.4472 H   0  0  0  0  0  0  0  0  0  0  0  0
    1.2742    9.2822   -2.8719 H   0  0  0  0  0  0  0  0  0  0  0  0
    0.9891    8.1062   -1.4683 H   0  0  0  0  0  0  0  0  0  0  0  0
   -1.0894    9.6879   -3.0058 H   0  0  0  0  0  0  0  0  0  0  0  0
   -0.8411    7.8983   -2.9585 H   0  0  0  0  0  0  0  0  0  0  0  0
   -1.3231    7.6823    0.7284 H   0  0  0  0  0  0  0  0  0  0  0  0
   -1.9118    6.6263   -0.6001 H   0  0  0  0  0  0  0  0  0  0  0  0
   -0.2117    7.2064   -0.6001 H   0  0  0  0  0  0  0  0  0  0  0  0
  1  2  1  0
  2  3  1  0
  3  4  1  0
  4  5  1  0
  5  6  1  0
  6  7  1  0
  7  8  1  0
  7  9  1  0
  2 10  1  0
 10 11  1  0
 11 12  1  0
 12 13  1  0
 13 14  1  6
 13 15  1  0
 15 16  1  0
 16 17  1  0
 17 18  2  0
 18 19  1  0
 19 20  1  0
 20 21  1  0
 21 22  1  0
 22 23  1  0
 22 24  1  0
 24 25  1  0
 24 26  1  0
 19 27  1  0
 27 28  1  1
 27 29  1  0
 29 30  1  0
 30 31  1  0
 31 32  1  1
  7  5  1  0
 31 10  1  0
 31 13  1  0
 27 15  1  0
 24 18  1  0
  1 33  1  0
  1 34  1  0
  1 35  1  0
  2 36  1  1
  3 37  1  0
  3 38  1  0
  4 39  1  0
  4 40  1  0
  5 41  1  1
  8 42  1  0
  8 43  1  0
  8 44  1  0
  9 45  1  0
  9 46  1  0
  9 47  1  0
 10 48  1  6
 11 49  1  0
 11 50  1  0
 12 51  1  0
 12 52  1  0
 14 53  1  0
 14 54  1  0
 14 55  1  0
 15 56  1  1
 16 57  1  0
 16 58  1  0
 17 59  1  0
 19 60  1  6
 20 61  1  0
 20 62  1  0
 21 63  1  0
 21 64  1  0
 22 65  1  6
 23 66  1  0
 25 67  1  0
 25 68  1  0
 25 69  1  0
 26 70  1  0
 26 71  1  0
 26 72  1  0
 28 73  1  0
 28 74  1  0
 28 75  1  0
 29 76  1  0
 29 77  1  0
 30 78  1  0
 30 79  1  0
 32 80  1  0
 32 81  1  0
 32 82  1  0
M  END
>  <meeko>  (13) 
{"is_sidechain": [false], "intermolecular_energy": 2.731, "internal_energy": -0.839}

$$$$
EPH_relaxed_0001_pdb2pqr_Repair_227_r2_0001_out
     RDKit          3D

 82 86  0  0  0  0  0  0  0  0999 V2000
   -0.8360   16.3420   -5.8290 C   0  0  0  0  0  0  0  0  0  0  0  0
    0.2470   15.6320   -6.6470 C   0  0  2  0  0  0  0  0  0  0  0  0
   -0.1610   15.4580   -8.1240 C   0  0  0  0  0  0  0  0  0  0  0  0
    0.4630   16.4960   -9.0610 C   0  0  0  0  0  0  0  0  0  0  0  0
    1.8610   16.1210   -9.4500 C   0  0  2  0  0  0  0  0  0  0  0  0
    2.3130   16.6930  -10.6850 O   0  0  0  0  0  0  0  0  0  0  0  0
    2.1920   15.2610  -10.6560 C   0  0  0  0  0  0  0  0  0  0  0  0
    1.1180   14.7230  -11.5480 C   0  0  0  0  0  0  0  0  0  0  0  0
    3.5060   14.5450  -10.6850 C   0  0  0  0  0  0  0  0  0  0  0  0
    0.5570   14.2740   -6.0290 C   0  0  1  0  0  0  0  0  0  0  0  0
    1.8070   13.6030   -6.6580 C   0  0  0  0  0  0  0  0  0  0  0  0
    2.5190   12.8270   -5.5200 C   0  0  0  0  0  0  0  0  0  0  0  0
    1.4910   12.8000   -4.3640 C   0  0  1  0  0  0  0  0  0  0  0  0
    0.5170   11.6330   -4.7210 C   0  0  0  0  0  0  0  0  0  0  0  0
    2.0750   12.6420   -2.9230 C   0  0  2  0  0  0  0  0  0  0  0  0
    2.8330   11.3280   -2.6650 C   0  0  0  0  0  0  0  0  0  0  0  0
    1.9990   10.2030   -2.1470 C   0  0  0  0  0  0  0  0  0  0  0  0
    0.7620   10.3200   -1.6290 C   0  0  0  0  0  0  0  0  0  0  0  0
    0.1170   11.6980   -1.4350 C   0  0  1  0  0  0  0  0  0  0  0  0
   -0.5140   11.7810   -0.0200 C   0  0  0  0  0  0  0  0  0  0  0  0
   -1.4850   10.6370    0.2550 C   0  0  0  0  0  0  0  0  0  0  0  0
   -0.7920    9.2850    0.1090 C   0  0  2  0  0  0  0  0  0  0  0  0
    0.1830    9.1530    1.1480 O   0  0  0  0  0  0  0  0  0  0  0  0
   -0.1110    9.0910   -1.2740 C   0  0  0  0  0  0  0  0  0  0  0  0
   -1.1940    8.9320   -2.3700 C   0  0  0  0  0  0  0  0  0  0  0  0
    0.6700    7.7500   -1.2380 C   0  0  0  0  0  0  0  0  0  0  0  0
    1.0400   12.9490   -1.7660 C   0  0  1  0  0  0  0  0  0  0  0  0
    1.8770   13.3390   -0.5100 C   0  0  0  0  0  0  0  0  0  0  0  0
    0.1270   14.1890   -2.0940 C   0  0  0  0  0  0  0  0  0  0  0  0
   -0.3200   14.3560   -3.5590 C   0  0  0  0  0  0  0  0  0  0  0  0
    0.8730   14.2380   -4.5120 C   0  0  2  0  0  0  0  0  0  0  0  0
    1.8600   15.4110   -4.1920 C   0  0  0  0  0  0  0  0  0  0  0  0
   -0.6321   16.2083   -4.7564 H   0  0  0  0  0  0  0  0  0  0  0  0
   -0.8344   17.4149   -6.0716 H   0  0  0  0  0  0  0  0  0  0  0  0
   -1.8193   15.9127   -6.0716 H   0  0  0  0  0  0  0  0  0  0  0  0
    1.1465   16.2648   -6.6257 H   0  0  0  0  0  0  0  0  0  0  0  0
    0.1533   14.4574   -8.4556 H   0  0  0  0  0  0  0  0  0  0  0  0
   -1.2515   15.5935   -8.1745 H   0  0  0  0  0  0  0  0  0  0  0  0
   -0.1520   16.5714   -9.9699 H   0  0  0  0  0  0  0  0  0  0  0  0
    0.5009   17.4587   -8.5302 H   0  0  0  0  0  0  0  0  0  0  0  0
    2.1631   16.0587   -8.3941 H   0  0  0  0  0  0  0  0  0  0  0  0
    0.3020   14.3142  -10.9340 H   0  0  0  0  0  0  0  0  0  0  0  0
    0.7289   15.5326  -12.1829 H   0  0  0  0  0  0  0  0  0  0  0  0
    1.5335   13.9266  -12.1829 H   0  0  0  0  0  0  0  0  0  0  0  0
    3.8456   14.3600   -9.6552 H   0  0  0  0  0  0  0  0  0  0  0  0
    3.3893   13.5857  -11.2106 H   0  0  0  0  0  0  0  0  0  0  0  0
    4.2488   15.1631  -11.2106 H   0  0  0  0  0  0  0  0  0  0  0  0
   -0.3949   13.7596   -6.2273 H   0  0  0  0  0  0  0  0  0  0  0  0
    1.5034   12.9101   -7.4566 H   0  0  0  0  0  0  0  0  0  0  0  0
    2.4765   14.3540   -7.1027 H   0  0  0  0  0  0  0  0  0  0  0  0
    2.7673   11.8052   -5.8429 H   0  0  0  0  0  0  0  0  0  0  0  0
    3.4678   13.2982   -5.2238 H   0  0  0  0  0  0  0  0  0  0  0  0
    0.1363   11.1769   -3.7952 H   0  0  0  0  0  0  0  0  0  0  0  0
   -0.3253   12.0255   -5.3096 H   0  0  0  0  0  0  0  0  0  0  0  0
    1.0538   10.8745   -5.3096 H   0  0  0  0  0  0  0  0  0  0  0  0
    2.8354   13.4361   -2.8900 H   0  0  0  0  0  0  0  0  0  0  0  0
    3.2876   11.0057   -3.6134 H   0  0  0  0  0  0  0  0  0  0  0  0
    3.5684   11.5499   -1.8777 H   0  0  0  0  0  0  0  0  0  0  0  0
    2.4321    9.1929   -2.1925 H   0  0  0  0  0  0  0  0  0  0  0  0
   -0.6703   11.7746   -2.1994 H   0  0  0  0  0  0  0  0  0  0  0  0
    0.2918   11.7472    0.7280 H   0  0  0  0  0  0  0  0  0  0  0  0
   -1.0810   12.7218    0.0383 H   0  0  0  0  0  0  0  0  0  0  0  0
   -1.8736   10.7333    1.2795 H   0  0  0  0  0  0  0  0  0  0  0  0
   -2.3061   10.6908   -0.4750 H   0  0  0  0  0  0  0  0  0  0  0  0
   -1.5660    8.5074    0.1885 H   0  0  0  0  0  0  0  0  0  0  0  0
    0.4590   10.0490    1.4090 H   0  0  0  0  0  0  0  0  0  0  0  0
   -2.1764    8.7878   -1.8966 H   0  0  0  0  0  0  0  0  0  0  0  0
   -1.2178    9.8363   -2.9959 H   0  0  0  0  0  0  0  0  0  0  0  0
   -0.9569    8.0590   -2.9959 H   0  0  0  0  0  0  0  0  0  0  0  0
    0.8424    7.4540   -0.1927 H   0  0  0  0  0  0  0  0  0  0  0  0
    0.0844    6.9708   -1.7479 H   0  0  0  0  0  0  0  0  0  0  0  0
    1.6366    7.8749   -1.7479 H   0  0  0  0  0  0  0  0  0  0  0  0
    1.3165   13.0778    0.3997 H   0  0  0  0  0  0  0  0  0  0  0  0
    2.8319   12.7931   -0.5217 H   0  0  0  0  0  0  0  0  0  0  0  0
    2.0732   14.4213   -0.5217 H   0  0  0  0  0  0  0  0  0  0  0  0
   -0.7799   14.1067   -1.4769 H   0  0  0  0  0  0  0  0  0  0  0  0
    0.7513   15.0695   -1.8820 H   0  0  0  0  0  0  0  0  0  0  0  0
   -1.0542   13.5740   -3.8027 H   0  0  0  0  0  0  0  0  0  0  0  0
   -0.7672   15.3539   -3.6781 H   0  0  0  0  0  0  0  0  0  0  0  0
    1.9547   15.5235   -3.1019 H   0  0  0  0  0  0  0  0  0  0  0  0
    2.8465   15.1885   -4.6247 H   0  0  0  0  0  0  0  0  0  0  0  0
    1.4721   16.3450   -4.6247 H   0  0  0  0  0  0  0  0  0  0  0  0
  1  2  1  0
  2  3  1  0
  3  4  1  0
  4  5  1  0
  5  6  1  0
  6  7  1  0
  7  8  1  0
  7  9  1  0
  2 10  1  0
 10 11  1  0
 11 12  1  0
 12 13  1  0
 13 14  1  6
 13 15  1  0
 15 16  1  0
 16 17  1  0
 17 18  2  0
 18 19  1  0
 19 20  1  0
 20 21  1  0
 21 22  1  0
 22 23  1  0
 22 24  1  0
 24 25  1  0
 24 26  1  0
 19 27  1  0
 27 28  1  1
 27 29  1  0
 29 30  1  0
 30 31  1  0
 31 32  1  1
  7  5  1  0
 31 10  1  0
 31 13  1  0
 27 15  1  0
 24 18  1  0
  1 33  1  0
  1 34  1  0
  1 35  1  0
  2 36  1  6
  3 37  1  0
  3 38  1  0
  4 39  1  0
  4 40  1  0
  5 41  1  1
  8 42  1  0
  8 43  1  0
  8 44  1  0
  9 45  1  0
  9 46  1  0
  9 47  1  0
 10 48  1  1
 11 49  1  0
 11 50  1  0
 12 51  1  0
 12 52  1  0
 14 53  1  0
 14 54  1  0
 14 55  1  0
 15 56  1  6
 16 57  1  0
 16 58  1  0
 17 59  1  0
 19 60  1  6
 20 61  1  0
 20 62  1  0
 21 63  1  0
 21 64  1  0
 22 65  1  1
 23 66  1  0
 25 67  1  0
 25 68  1  0
 25 69  1  0
 26 70  1  0
 26 71  1  0
 26 72  1  0
 28 73  1  0
 28 74  1  0
 28 75  1  0
 29 76  1  0
 29 77  1  0
 30 78  1  0
 30 79  1  0
 32 80  1  0
 32 81  1  0
 32 82  1  0
M  END
>  <meeko>  (14) 
{"is_sidechain": [false], "intermolecular_energy": 2.731, "internal_energy": -0.839}

$$$$
EPH_relaxed_0001_pdb2pqr_Repair_227_r2_0001_out
     RDKit          3D

 82 86  0  0  0  0  0  0  0  0999 V2000
   -0.2930   15.1120   -7.6150 C   0  0  0  0  0  0  0  0  0  0  0  0
    1.0850   15.0810   -6.9490 C   0  0  2  0  0  0  0  0  0  0  0  0
    2.2300   15.1640   -7.9790 C   0  0  0  0  0  0  0  0  0  0  0  0
    2.2610   16.4810   -8.7600 C   0  0  0  0  0  0  0  0  0  0  0  0
    1.8580   16.2860  -10.1900 C   0  0  2  0  0  0  0  0  0  0  0  0
    1.1920   15.0460  -10.4620 O   0  0  0  0  0  0  0  0  0  0  0  0
    2.4680   15.2310  -11.0950 C   0  0  0  0  0  0  0  0  0  0  0  0
    3.5320   14.3020  -10.6020 C   0  0  0  0  0  0  0  0  0  0  0  0
    2.3830   15.4240  -12.5770 C   0  0  0  0  0  0  0  0  0  0  0  0
    1.2290   13.8160   -6.1120 C   0  0  1  0  0  0  0  0  0  0  0  0
    2.6600   13.2170   -6.1730 C   0  0  0  0  0  0  0  0  0  0  0  0
    2.9520   12.6120   -4.7760 C   0  0  0  0  0  0  0  0  0  0  0  0
    1.5770   12.5830   -4.0680 C   0  0  1  0  0  0  0  0  0  0  0  0
    0.8710   11.3030   -4.6150 C   0  0  0  0  0  0  0  0  0  0  0  0
    1.6050   12.6050   -2.5050 C   0  0  2  0  0  0  0  0  0  0  0  0
    2.2920   11.3960   -1.8480 C   0  0  0  0  0  0  0  0  0  0  0  0
    1.3960   10.2430   -1.5370 C   0  0  0  0  0  0  0  0  0  0  0  0
    0.0510   10.2840   -1.5110 C   0  0  0  0  0  0  0  0  0  0  0  0
   -0.7020   11.6050   -1.7170 C   0  0  1  0  0  0  0  0  0  0  0  0
   -1.8080   11.7440   -0.6390 C   0  0  0  0  0  0  0  0  0  0  0  0
   -2.7440   10.5400   -0.6010 C   0  0  0  0  0  0  0  0  0  0  0  0
   -1.9660    9.2530   -0.3360 C   0  0  2  0  0  0  0  0  0  0  0  0
   -1.4310    9.3040    0.9900 O   0  0  0  0  0  0  0  0  0  0  0  0
   -0.8170    9.0110   -1.3540 C   0  0  0  0  0  0  0  0  0  0  0  0
   -1.4150    8.6570   -2.7380 C   0  0  0  0  0  0  0  0  0  0  0  0
   -0.0250    7.7590   -0.8910 C   0  0  0  0  0  0  0  0  0  0  0  0
    0.2020   12.9060   -1.8370 C   0  0  1  0  0  0  0  0  0  0  0  0
    0.5000   13.4790   -0.4170 C   0  0  0  0  0  0  0  0  0  0  0  0
   -0.6000   14.0210   -2.6060 C   0  0  0  0  0  0  0  0  0  0  0  0
   -0.4910   14.0200   -4.1430 C   0  0  0  0  0  0  0  0  0  0  0  0
    0.9720   13.9370   -4.5890 C   0  0  2  0  0  0  0  0  0  0  0  0
    1.7020   15.2240   -4.0720 C   0  0  0  0  0  0  0  0  0  0  0  0
   -1.0741   15.1296   -6.8407 H   0  0  0  0  0  0  0  0  0  0  0  0
   -0.3773   16.0123   -8.2414 H   0  0  0  0  0  0  0  0  0  0  0  0
   -0.4177   14.2164   -8.2414 H   0  0  0  0  0  0  0  0  0  0  0  0
    1.1591   15.9666   -6.3007 H   0  0  0  0  0  0  0  0  0  0  0  0
    3.1857   15.0540   -7.4455 H   0  0  0  0  0  0  0  0  0  0  0  0
    2.0630   14.3600   -8.7109 H   0  0  0  0  0  0  0  0  0  0  0  0
    1.5672   17.1921   -8.2877 H   0  0  0  0  0  0  0  0  0  0  0  0
    3.2913   16.8659   -8.7432 H   0  0  0  0  0  0  0  0  0  0  0  0
    1.7020   17.3674  -10.3174 H   0  0  0  0  0  0  0  0  0  0  0  0
    3.5353   14.2991   -9.5020 H   0  0  0  0  0  0  0  0  0  0  0  0
    3.3308   13.2854  -10.9708 H   0  0  0  0  0  0  0  0  0  0  0  0
    4.5122   14.6385  -10.9708 H   0  0  0  0  0  0  0  0  0  0  0  0
    1.9483   16.4109  -12.7939 H   0  0  0  0  0  0  0  0  0  0  0  0
    3.3911   15.3635  -13.0131 H   0  0  0  0  0  0  0  0  0  0  0  0
    1.7471   14.6394  -13.0131 H   0  0  0  0  0  0  0  0  0  0  0  0
    0.4472   13.1984   -6.5782 H   0  0  0  0  0  0  0  0  0  0  0  0
    2.7099   12.4332   -6.9431 H   0  0  0  0  0  0  0  0  0  0  0  0
    3.4002   13.9885   -6.4316 H   0  0  0  0  0  0  0  0  0  0  0  0
    3.3614   11.5954   -4.8710 H   0  0  0  0  0  0  0  0  0  0  0  0
    3.6972   13.1960   -4.2160 H   0  0  0  0  0  0  0  0  0  0  0  0
    0.5296   10.6840   -3.7722 H   0  0  0  0  0  0  0  0  0  0  0  0
    0.0065   11.5952   -5.2292 H   0  0  0  0  0  0  0  0  0  0  0  0
    1.5794   10.7277   -5.2292 H   0  0  0  0  0  0  0  0  0  0  0  0
    2.2526   13.4683   -2.2920 H   0  0  0  0  0  0  0  0  0  0  0  0
    3.0787   11.0405   -2.5297 H   0  0  0  0  0  0  0  0  0  0  0  0
    2.6746   11.7529   -0.8804 H   0  0  0  0  0  0  0  0  0  0  0  0
    1.8753    9.2792   -1.3101 H   0  0  0  0  0  0  0  0  0  0  0  0
   -1.1606   11.5420   -2.7148 H   0  0  0  0  0  0  0  0  0  0  0  0
   -1.3291   11.8493    0.3457 H   0  0  0  0  0  0  0  0  0  0  0  0
   -2.4118   12.6278   -0.8928 H   0  0  0  0  0  0  0  0  0  0  0  0
   -3.4844   10.6846    0.1996 H   0  0  0  0  0  0  0  0  0  0  0  0
   -3.2448   10.4533   -1.5765 H   0  0  0  0  0  0  0  0  0  0  0  0
   -2.6675    8.4134   -0.4501 H   0  0  0  0  0  0  0  0  0  0  0  0
   -1.2570    8.3900    1.2730 H   0  0  0  0  0  0  0  0  0  0  0  0
   -2.3541    8.1011   -2.6003 H   0  0  0  0  0  0  0  0  0  0  0  0
   -1.6153    9.5821   -3.2984 H   0  0  0  0  0  0  0  0  0  0  0  0
   -0.7003    8.0364   -3.2984 H   0  0  0  0  0  0  0  0  0  0  0  0
   -0.0033    7.7247    0.2083 H   0  0  0  0  0  0  0  0  0  0  0  0
   -0.5142    6.8524   -1.2766 H   0  0  0  0  0  0  0  0  0  0  0  0
    1.0038    7.8127   -1.2766 H   0  0  0  0  0  0  0  0  0  0  0  0
    0.1345   12.7761    0.3461 H   0  0  0  0  0  0  0  0  0  0  0  0
    1.5847   13.6180   -0.2979 H   0  0  0  0  0  0  0  0  0  0  0  0
   -0.0090   14.4469   -0.2979 H   0  0  0  0  0  0  0  0  0  0  0  0
   -1.6629   13.9045   -2.3477 H   0  0  0  0  0  0  0  0  0  0  0  0
   -0.1495   14.9721   -2.2861 H   0  0  0  0  0  0  0  0  0  0  0  0
   -1.0385   13.1534   -4.5420 H   0  0  0  0  0  0  0  0  0  0  0  0
   -0.9216   14.9571   -4.5257 H   0  0  0  0  0  0  0  0  0  0  0  0
    1.7040   15.2275   -2.9720 H   0  0  0  0  0  0  0  0  0  0  0  0
    2.7384   15.2307   -4.4406 H   0  0  0  0  0  0  0  0  0  0  0  0
    1.1759   16.1170   -4.4406 H   0  0  0  0  0  0  0  0  0  0  0  0
  1  2  1  0
  2  3  1  0
  3  4  1  0
  4  5  1  0
  5  6  1  0
  6  7  1  0
  7  8  1  0
  7  9  1  0
  2 10  1  0
 10 11  1  0
 11 12  1  0
 12 13  1  0
 13 14  1  1
 13 15  1  0
 15 16  1  0
 16 17  1  0
 17 18  2  0
 18 19  1  0
 19 20  1  0
 20 21  1  0
 21 22  1  0
 22 23  1  0
 22 24  1  0
 24 25  1  0
 24 26  1  0
 19 27  1  0
 27 28  1  1
 27 29  1  0
 29 30  1  0
 30 31  1  0
 31 32  1  1
  7  5  1  0
 31 10  1  0
 31 13  1  0
 27 15  1  0
 24 18  1  0
  1 33  1  0
  1 34  1  0
  1 35  1  0
  2 36  1  1
  3 37  1  0
  3 38  1  0
  4 39  1  0
  4 40  1  0
  5 41  1  6
  8 42  1  0
  8 43  1  0
  8 44  1  0
  9 45  1  0
  9 46  1  0
  9 47  1  0
 10 48  1  6
 11 49  1  0
 11 50  1  0
 12 51  1  0
 12 52  1  0
 14 53  1  0
 14 54  1  0
 14 55  1  0
 15 56  1  6
 16 57  1  0
 16 58  1  0
 17 59  1  0
 19 60  1  6
 20 61  1  0
 20 62  1  0
 21 63  1  0
 21 64  1  0
 22 65  1  1
 23 66  1  0
 25 67  1  0
 25 68  1  0
 25 69  1  0
 26 70  1  0
 26 71  1  0
 26 72  1  0
 28 73  1  0
 28 74  1  0
 28 75  1  0
 29 76  1  0
 29 77  1  0
 30 78  1  0
 30 79  1  0
 32 80  1  0
 32 81  1  0
 32 82  1  0
M  END
>  <meeko>  (15) 
{"is_sidechain": [false], "intermolecular_energy": 2.731, "internal_energy": -0.839}

$$$$
EPH_relaxed_0001_pdb2pqr_Repair_227_r2_0001_out
     RDKit          3D

 82 86  0  0  0  0  0  0  0  0999 V2000
    3.2120   17.8440   -0.3380 C   0  0  0  0  0  0  0  0  0  0  0  0
    2.8690   16.9270   -1.5140 C   0  0  2  0  0  0  0  0  0  0  0  0
    2.3000   17.7100   -2.7140 C   0  0  0  0  0  0  0  0  0  0  0  0
    1.6890   19.0610   -2.3340 C   0  0  0  0  0  0  0  0  0  0  0  0
    0.2260   18.9430   -2.0310 C   0  0  2  0  0  0  0  0  0  0  0  0
   -0.4360   20.1890   -1.7790 O   0  0  0  0  0  0  0  0  0  0  0  0
   -0.3770   19.2680   -0.6780 C   0  0  0  0  0  0  0  0  0  0  0  0
    0.4710   19.7370    0.4620 C   0  0  0  0  0  0  0  0  0  0  0  0
   -1.7020   18.6690   -0.3220 C   0  0  0  0  0  0  0  0  0  0  0  0
    1.8740   15.8610   -1.0690 C   0  0  1  0  0  0  0  0  0  0  0  0
    0.5200   16.4630   -0.6080 C   0  0  0  0  0  0  0  0  0  0  0  0
   -0.5830   15.4590   -1.0310 C   0  0  0  0  0  0  0  0  0  0  0  0
    0.1860   14.1740   -1.4180 C   0  0  1  0  0  0  0  0  0  0  0  0
    0.4880   13.4640   -0.0610 C   0  0  0  0  0  0  0  0  0  0  0  0
   -0.5300   13.2160   -2.4240 C   0  0  2  0  0  0  0  0  0  0  0  0
   -1.8570   12.6180   -1.9240 C   0  0  0  0  0  0  0  0  0  0  0  0
   -1.7370   11.3150   -1.2040 C   0  0  0  0  0  0  0  0  0  0  0  0
   -0.6570   10.5130   -1.2140 C   0  0  0  0  0  0  0  0  0  0  0  0
    0.5630   10.8430   -2.0840 C   0  0  1  0  0  0  0  0  0  0  0  0
    1.0180    9.5690   -2.8430 C   0  0  0  0  0  0  0  0  0  0  0  0
    1.2700    8.3900   -1.9080 C   0  0  0  0  0  0  0  0  0  0  0  0
    0.0180    8.0550   -1.1030 C   0  0  2  0  0  0  0  0  0  0  0  0
   -0.9870    7.5650   -1.9960 O   0  0  0  0  0  0  0  0  0  0  0  0
   -0.5390    9.2660   -0.3030 C   0  0  0  0  0  0  0  0  0  0  0  0
    0.4220    9.6050    0.8640 C   0  0  0  0  0  0  0  0  0  0  0  0
   -1.8790    8.8310    0.3500 C   0  0  0  0  0  0  0  0  0  0  0  0
    0.4100   12.1030   -3.0410 C   0  0  1  0  0  0  0  0  0  0  0  0
   -0.2390   11.6690   -4.3910 C   0  0  0  0  0  0  0  0  0  0  0  0
    1.8410   12.6560   -3.3940 C   0  0  0  0  0  0  0  0  0  0  0  0
    2.4450   13.6900   -2.4240 C   0  0  0  0  0  0  0  0  0  0  0  0
    1.4430   14.8070   -2.1200 C   0  0  2  0  0  0  0  0  0  0  0  0
    1.1370   15.5540   -3.4620 C   0  0  0  0  0  0  0  0  0  0  0  0
    3.0150   17.3172    0.6073 H   0  0  0  0  0  0  0  0  0  0  0  0
    4.2750   18.1223   -0.3880 H   0  0  0  0  0  0  0  0  0  0  0  0
    2.5926   18.7516   -0.3880 H   0  0  0  0  0  0  0  0  0  0  0  0
    3.8031   16.4492   -1.8443 H   0  0  0  0  0  0  0  0  0  0  0  0
    3.1152   17.8870   -3.4310 H   0  0  0  0  0  0  0  0  0  0  0  0
    1.4903   17.0999   -3.1408 H   0  0  0  0  0  0  0  0  0  0  0  0
    2.2070   19.4488   -1.4444 H   0  0  0  0  0  0  0  0  0  0  0  0
    1.8079   19.7433   -3.1886 H   0  0  0  0  0  0  0  0  0  0  0  0
    0.1377   18.0637   -2.6860 H   0  0  0  0  0  0  0  0  0  0  0  0
   -0.0127   19.4695    1.4131 H   0  0  0  0  0  0  0  0  0  0  0  0
    1.4592   19.2572    0.4055 H   0  0  0  0  0  0  0  0  0  0  0  0
    0.5899   20.8291    0.4055 H   0  0  0  0  0  0  0  0  0  0  0  0
   -1.8018   18.6239    0.7725 H   0  0  0  0  0  0  0  0  0  0  0  0
   -2.5089   19.2899   -0.7385 H   0  0  0  0  0  0  0  0  0  0  0  0
   -1.7689   17.6531   -0.7385 H   0  0  0  0  0  0  0  0  0  0  0  0
    2.4625   15.3801   -0.2737 H   0  0  0  0  0  0  0  0  0  0  0  0
    0.5154   16.5927    0.4843 H   0  0  0  0  0  0  0  0  0  0  0  0
    0.3512   17.4501   -1.0632 H   0  0  0  0  0  0  0  0  0  0  0  0
   -1.2708   15.2630   -0.1952 H   0  0  0  0  0  0  0  0  0  0  0  0
   -1.1996   15.8410   -1.8580 H   0  0  0  0  0  0  0  0  0  0  0  0
    0.2061   14.1269    0.7703 H   0  0  0  0  0  0  0  0  0  0  0  0
   -0.0911   12.5309    0.0014 H   0  0  0  0  0  0  0  0  0  0  0  0
    1.5619   13.2340    0.0014 H   0  0  0  0  0  0  0  0  0  0  0  0
   -0.7998   13.8961   -3.2454 H   0  0  0  0  0  0  0  0  0  0  0  0
   -2.3204   13.3435   -1.2393 H   0  0  0  0  0  0  0  0  0  0  0  0
   -2.4579   12.4154   -2.8228 H   0  0  0  0  0  0  0  0  0  0  0  0
   -2.6052   10.9830   -0.6158 H   0  0  0  0  0  0  0  0  0  0  0  0
    1.3538   11.1653   -1.3907 H   0  0  0  0  0  0  0  0  0  0  0  0
    0.2342    9.2879   -3.5617 H   0  0  0  0  0  0  0  0  0  0  0  0
    1.9663    9.8025   -3.3492 H   0  0  0  0  0  0  0  0  0  0  0  0
    1.5596    7.5126   -2.5050 H   0  0  0  0  0  0  0  0  0  0  0  0
    2.0745    8.6621   -1.2089 H   0  0  0  0  0  0  0  0  0  0  0  0
    0.2972    7.2917   -0.3618 H   0  0  0  0  0  0  0  0  0  0  0  0
   -1.4880    6.8760   -1.5270 H   0  0  0  0  0  0  0  0  0  0  0  0
   -0.0873    9.4254    1.8223 H   0  0  0  0  0  0  0  0  0  0  0  0
    1.3166    8.9682    0.7991 H   0  0  0  0  0  0  0  0  0  0  0  0
    0.7190   10.6622    0.7991 H   0  0  0  0  0  0  0  0  0  0  0  0
   -1.7806    8.8629    1.4451 H   0  0  0  0  0  0  0  0  0  0  0  0
   -2.6801    9.5152    0.0337 H   0  0  0  0  0  0  0  0  0  0  0  0
   -2.1255    7.8067    0.0337 H   0  0  0  0  0  0  0  0  0  0  0  0
   -1.1379   11.0679   -4.1892 H   0  0  0  0  0  0  0  0  0  0  0  0
   -0.5177   12.5631   -4.9680 H   0  0  0  0  0  0  0  0  0  0  0  0
    0.4808   11.0699   -4.9680 H   0  0  0  0  0  0  0  0  0  0  0  0
    2.5282   11.7981   -3.4362 H   0  0  0  0  0  0  0  0  0  0  0  0
    1.7153   13.1931   -4.3457 H   0  0  0  0  0  0  0  0  0  0  0  0
    2.7179   13.1861   -1.4851 H   0  0  0  0  0  0  0  0  0  0  0  0
    3.3341   14.1349   -2.8947 H   0  0  0  0  0  0  0  0  0  0  0  0
    0.7285   16.5513   -3.2416 H   0  0  0  0  0  0  0  0  0  0  0  0
    2.0649   15.6582   -4.0435 H   0  0  0  0  0  0  0  0  0  0  0  0
    0.4027   14.9773   -4.0435 H   0  0  0  0  0  0  0  0  0  0  0  0
  1  2  1  0
  2  3  1  0
  3  4  1  0
  4  5  1  0
  5  6  1  0
  6  7  1  0
  7  8  1  0
  7  9  1  0
  2 10  1  0
 10 11  1  0
 11 12  1  0
 12 13  1  0
 13 14  1  1
 13 15  1  0
 15 16  1  0
 16 17  1  0
 17 18  2  0
 18 19  1  0
 19 20  1  0
 20 21  1  0
 21 22  1  0
 22 23  1  0
 22 24  1  0
 24 25  1  0
 24 26  1  0
 19 27  1  0
 27 28  1  6
 27 29  1  0
 29 30  1  0
 30 31  1  0
 31 32  1  6
  7  5  1  0
 31 10  1  0
 31 13  1  0
 27 15  1  0
 24 18  1  0
  1 33  1  0
  1 34  1  0
  1 35  1  0
  2 36  1  6
  3 37  1  0
  3 38  1  0
  4 39  1  0
  4 40  1  0
  5 41  1  6
  8 42  1  0
  8 43  1  0
  8 44  1  0
  9 45  1  0
  9 46  1  0
  9 47  1  0
 10 48  1  1
 11 49  1  0
 11 50  1  0
 12 51  1  0
 12 52  1  0
 14 53  1  0
 14 54  1  0
 14 55  1  0
 15 56  1  6
 16 57  1  0
 16 58  1  0
 17 59  1  0
 19 60  1  1
 20 61  1  0
 20 62  1  0
 21 63  1  0
 21 64  1  0
 22 65  1  1
 23 66  1  0
 25 67  1  0
 25 68  1  0
 25 69  1  0
 26 70  1  0
 26 71  1  0
 26 72  1  0
 28 73  1  0
 28 74  1  0
 28 75  1  0
 29 76  1  0
 29 77  1  0
 30 78  1  0
 30 79  1  0
 32 80  1  0
 32 81  1  0
 32 82  1  0
M  END
>  <meeko>  (16) 
{"is_sidechain": [false], "intermolecular_energy": 2.731, "internal_energy": -0.839}

$$$$
EPH_relaxed_0001_pdb2pqr_Repair_227_r2_0001_out
     RDKit          3D

 82 86  0  0  0  0  0  0  0  0999 V2000
   -2.2920    7.7940   -2.2790 C   0  0  0  0  0  0  0  0  0  0  0  0
   -2.2770    8.3820   -0.8650 C   0  0  2  0  0  0  0  0  0  0  0  0
   -3.6720    8.3520   -0.2090 C   0  0  0  0  0  0  0  0  0  0  0  0
   -4.8130    8.1050   -1.1990 C   0  0  0  0  0  0  0  0  0  0  0  0
   -5.9530    7.3710   -0.5600 C   0  0  2  0  0  0  0  0  0  0  0  0
   -6.3440    6.1680   -1.2350 O   0  0  0  0  0  0  0  0  0  0  0  0
   -7.3180    7.2230   -1.2040 C   0  0  0  0  0  0  0  0  0  0  0  0
   -7.6170    7.8150   -2.5460 C   0  0  0  0  0  0  0  0  0  0  0  0
   -8.4950    6.9310   -0.3260 C   0  0  0  0  0  0  0  0  0  0  0  0
   -1.7500    9.8120   -0.9020 C   0  0  1  0  0  0  0  0  0  0  0  0
   -1.3310   10.3310    0.5000 C   0  0  0  0  0  0  0  0  0  0  0  0
   -0.1070   11.2570    0.2860 C   0  0  0  0  0  0  0  0  0  0  0  0
   -0.0660   11.5050   -1.2400 C   0  0  1  0  0  0  0  0  0  0  0  0
   -1.1190   12.6290   -1.4920 C   0  0  0  0  0  0  0  0  0  0  0  0
    1.3290   11.8740   -1.8430 C   0  0  2  0  0  0  0  0  0  0  0  0
    1.9380   13.1870   -1.3220 C   0  0  0  0  0  0  0  0  0  0  0  0
    1.5890   14.4080   -2.1070 C   0  0  0  0  0  0  0  0  0  0  0  0
    1.0550   14.4170   -3.3430 C   0  0  0  0  0  0  0  0  0  0  0  0
    0.8400   13.1100   -4.1170 C   0  0  1  0  0  0  0  0  0  0  0  0
    1.3570   13.2780   -5.5710 C   0  0  0  0  0  0  0  0  0  0  0  0
    0.7390   14.4830   -6.2750 C   0  0  0  0  0  0  0  0  0  0  0  0
    1.0240   15.7700   -5.5050 C   0  0  2  0  0  0  0  0  0  0  0  0
    2.4290   16.0360   -5.5560 O   0  0  0  0  0  0  0  0  0  0  0  0
    0.5560   15.7140   -4.0240 C   0  0  0  0  0  0  0  0  0  0  0  0
   -0.9920   15.7290   -3.9670 C   0  0  0  0  0  0  0  0  0  0  0  0
    1.0290   17.0180   -3.3250 C   0  0  0  0  0  0  0  0  0  0  0  0
    1.3940   11.7930   -3.4220 C   0  0  1  0  0  0  0  0  0  0  0  0
    2.8940   11.5840   -3.7950 C   0  0  0  0  0  0  0  0  0  0  0  0
    0.6180   10.5460   -3.9900 C   0  0  0  0  0  0  0  0  0  0  0  0
   -0.6920   10.1590   -3.2760 C   0  0  0  0  0  0  0  0  0  0  0  0
   -0.4880   10.0820   -1.7600 C   0  0  2  0  0  0  0  0  0  0  0  0
    0.5500    8.9440   -1.4740 C   0  0  0  0  0  0  0  0  0  0  0  0
   -2.3200    6.6960   -2.2192 H   0  0  0  0  0  0  0  0  0  0  0  0
   -3.1812    8.1547   -2.8167 H   0  0  0  0  0  0  0  0  0  0  0  0
   -1.3855    8.1089   -2.8167 H   0  0  0  0  0  0  0  0  0  0  0  0
   -1.6107    7.7558   -0.2535 H   0  0  0  0  0  0  0  0  0  0  0  0
   -3.6849    7.5492    0.5429 H   0  0  0  0  0  0  0  0  0  0  0  0
   -3.8402    9.3448    0.2337 H   0  0  0  0  0  0  0  0  0  0  0  0
   -5.1772    9.0736   -1.5720 H   0  0  0  0  0  0  0  0  0  0  0  0
   -4.4251    7.4862   -2.0215 H   0  0  0  0  0  0  0  0  0  0  0  0
   -5.6413    7.7089    0.4393 H   0  0  0  0  0  0  0  0  0  0  0  0
   -8.1094    8.7899   -2.4152 H   0  0  0  0  0  0  0  0  0  0  0  0
   -6.6790    7.9500   -3.1045 H   0  0  0  0  0  0  0  0  0  0  0  0
   -8.2824    7.1401   -3.1045 H   0  0  0  0  0  0  0  0  0  0  0  0
   -8.1930    7.0059    0.7291 H   0  0  0  0  0  0  0  0  0  0  0  0
   -9.2947    7.6580   -0.5310 H   0  0  0  0  0  0  0  0  0  0  0  0
   -8.8621    5.9145   -0.5310 H   0  0  0  0  0  0  0  0  0  0  0  0
   -2.6212   10.3187   -1.3428 H   0  0  0  0  0  0  0  0  0  0  0  0
   -2.1572   10.8948    0.9578 H   0  0  0  0  0  0  0  0  0  0  0  0
   -1.0824    9.4965    1.1722 H   0  0  0  0  0  0  0  0  0  0  0  0
   -0.2372   12.2043    0.8298 H   0  0  0  0  0  0  0  0  0  0  0  0
    0.8251   10.8088    0.6605 H   0  0  0  0  0  0  0  0  0  0  0  0
   -1.4809   13.0153   -0.5277 H   0  0  0  0  0  0  0  0  0  0  0  0
   -0.6537   13.4460   -2.0629 H   0  0  0  0  0  0  0  0  0  0  0  0
   -1.9646   12.2179   -2.0629 H   0  0  0  0  0  0  0  0  0  0  0  0
    1.9737   11.0715   -1.4554 H   0  0  0  0  0  0  0  0  0  0  0  0
    1.5906   13.3363   -0.2890 H   0  0  0  0  0  0  0  0  0  0  0  0
    3.0285   13.0716   -1.4080 H   0  0  0  0  0  0  0  0  0  0  0  0
    1.7846   15.3826   -1.6359 H   0  0  0  0  0  0  0  0  0  0  0  0
   -0.2462   12.9365   -4.1240 H   0  0  0  0  0  0  0  0  0  0  0  0
    2.4491   13.4067   -5.5445 H   0  0  0  0  0  0  0  0  0  0  0  0
    1.0696   12.3779   -6.1342 H   0  0  0  0  0  0  0  0  0  0  0  0
    1.1645   14.5666   -7.2859 H   0  0  0  0  0  0  0  0  0  0  0  0
   -0.3503   14.3388   -6.3269 H   0  0  0  0  0  0  0  0  0  0  0  0
    0.4495   16.5759   -5.9850 H   0  0  0  0  0  0  0  0  0  0  0  0
    2.6290   16.3910   -6.4390 H   0  0  0  0  0  0  0  0  0  0  0  0
   -1.3202   15.7322   -2.9171 H   0  0  0  0  0  0  0  0  0  0  0  0
   -1.3688   16.6308   -4.4717 H   0  0  0  0  0  0  0  0  0  0  0  0
   -1.3862   14.8346   -4.4717 H   0  0  0  0  0  0  0  0  0  0  0  0
    0.9815   16.8871   -2.2339 H   0  0  0  0  0  0  0  0  0  0  0  0
    2.0645   17.2389   -3.6231 H   0  0  0  0  0  0  0  0  0  0  0  0
    0.3759   17.8514   -3.6231 H   0  0  0  0  0  0  0  0  0  0  0  0
    3.4923   11.5006   -2.8757 H   0  0  0  0  0  0  0  0  0  0  0  0
    2.9999   10.6624   -4.3862 H   0  0  0  0  0  0  0  0  0  0  0  0
    3.2477   12.4415   -4.3862 H   0  0  0  0  0  0  0  0  0  0  0  0
    0.3742   10.7564   -5.0418 H   0  0  0  0  0  0  0  0  0  0  0  0
    1.2934    9.6916   -3.8357 H   0  0  0  0  0  0  0  0  0  0  0  0
   -1.4596   10.9150   -3.4978 H   0  0  0  0  0  0  0  0  0  0  0  0
   -1.0097    9.1700   -3.6378 H   0  0  0  0  0  0  0  0  0  0  0  0
    0.6654    8.8175   -0.3874 H   0  0  0  0  0  0  0  0  0  0  0  0
    0.1932    8.0024   -1.9169 H   0  0  0  0  0  0  0  0  0  0  0  0
    1.5203    9.2130   -1.9169 H   0  0  0  0  0  0  0  0  0  0  0  0
  1  2  1  0
  2  3  1  0
  3  4  1  0
  4  5  1  0
  5  6  1  0
  6  7  1  0
  7  8  1  0
  7  9  1  0
  2 10  1  0
 10 11  1  0
 11 12  1  0
 12 13  1  0
 13 14  1  1
 13 15  1  0
 15 16  1  0
 16 17  1  0
 17 18  2  0
 18 19  1  0
 19 20  1  0
 20 21  1  0
 21 22  1  0
 22 23  1  0
 22 24  1  0
 24 25  1  0
 24 26  1  0
 19 27  1  0
 27 28  1  1
 27 29  1  0
 29 30  1  0
 30 31  1  0
 31 32  1  6
  7  5  1  0
 31 10  1  0
 31 13  1  0
 27 15  1  0
 24 18  1  0
  1 33  1  0
  1 34  1  0
  1 35  1  0
  2 36  1  1
  3 37  1  0
  3 38  1  0
  4 39  1  0
  4 40  1  0
  5 41  1  1
  8 42  1  0
  8 43  1  0
  8 44  1  0
  9 45  1  0
  9 46  1  0
  9 47  1  0
 10 48  1  6
 11 49  1  0
 11 50  1  0
 12 51  1  0
 12 52  1  0
 14 53  1  0
 14 54  1  0
 14 55  1  0
 15 56  1  1
 16 57  1  0
 16 58  1  0
 17 59  1  0
 19 60  1  6
 20 61  1  0
 20 62  1  0
 21 63  1  0
 21 64  1  0
 22 65  1  6
 23 66  1  0
 25 67  1  0
 25 68  1  0
 25 69  1  0
 26 70  1  0
 26 71  1  0
 26 72  1  0
 28 73  1  0
 28 74  1  0
 28 75  1  0
 29 76  1  0
 29 77  1  0
 30 78  1  0
 30 79  1  0
 32 80  1  0
 32 81  1  0
 32 82  1  0
M  END
>  <meeko>  (17) 
{"is_sidechain": [false], "intermolecular_energy": 2.731, "internal_energy": -0.839}

$$$$
EPH_relaxed_0001_pdb2pqr_Repair_227_r2_0001_out
     RDKit          3D

 82 86  0  0  0  0  0  0  0  0999 V2000
    1.6190   10.7340   -4.7930 C   0  0  0  0  0  0  0  0  0  0  0  0
    0.8740   10.5640   -3.4660 C   0  0  2  0  0  0  0  0  0  0  0  0
   -0.2760    9.5430   -3.5730 C   0  0  0  0  0  0  0  0  0  0  0  0
   -0.2070    8.4260   -2.5280 C   0  0  0  0  0  0  0  0  0  0  0  0
    0.0390    8.9680   -1.1530 C   0  0  2  0  0  0  0  0  0  0  0  0
   -0.3220    8.0810   -0.0860 O   0  0  0  0  0  0  0  0  0  0  0  0
   -1.0710    9.3040   -0.1750 C   0  0  0  0  0  0  0  0  0  0  0  0
   -2.5110    9.1110   -0.5330 C   0  0  0  0  0  0  0  0  0  0  0  0
   -0.7810   10.2690    0.9320 C   0  0  0  0  0  0  0  0  0  0  0  0
    0.3350   11.9100   -2.9970 C   0  0  1  0  0  0  0  0  0  0  0  0
   -1.0610   11.7940   -2.3280 C   0  0  0  0  0  0  0  0  0  0  0  0
   -1.1030   12.8510   -1.1950 C   0  0  0  0  0  0  0  0  0  0  0  0
    0.1230   13.7560   -1.4600 C   0  0  1  0  0  0  0  0  0  0  0  0
   -0.3420   14.7460   -2.5730 C   0  0  0  0  0  0  0  0  0  0  0  0
    0.7040   14.5120   -0.2210 C   0  0  2  0  0  0  0  0  0  0  0  0
   -0.2570   15.5150    0.4410 C   0  0  0  0  0  0  0  0  0  0  0  0
   -0.1870   16.9090   -0.0890 C   0  0  0  0  0  0  0  0  0  0  0  0
    0.8030   17.4070   -0.8530 C   0  0  0  0  0  0  0  0  0  0  0  0
    2.0450   16.5670   -1.1780 C   0  0  1  0  0  0  0  0  0  0  0  0
    3.3200   17.4240   -0.9600 C   0  0  0  0  0  0  0  0  0  0  0  0
    3.2830   18.7360   -1.7370 C   0  0  0  0  0  0  0  0  0  0  0  0
    2.0650   19.5690   -1.3440 C   0  0  2  0  0  0  0  0  0  0  0  0
    2.2130   19.9880    0.0160 O   0  0  0  0  0  0  0  0  0  0  0  0
    0.7210   18.8060   -1.5120 C   0  0  0  0  0  0  0  0  0  0  0  0
    0.4150   18.6160   -3.0190 C   0  0  0  0  0  0  0  0  0  0  0  0
   -0.4120   19.7050   -0.9490 C   0  0  0  0  0  0  0  0  0  0  0  0
    2.1310   15.1510   -0.4620 C   0  0  1  0  0  0  0  0  0  0  0  0
    2.7940   15.3040    0.9410 C   0  0  0  0  0  0  0  0  0  0  0  0
    3.0750   14.2090   -1.2990 C   0  0  0  0  0  0  0  0  0  0  0  0
    2.4190   13.3980   -2.4330 C   0  0  0  0  0  0  0  0  0  0  0  0
    1.1630   12.6770   -1.9360 C   0  0  2  0  0  0  0  0  0  0  0  0
    1.6020   11.6570   -0.8300 C   0  0  0  0  0  0  0  0  0  0  0  0
    2.6736   10.9746   -4.5932 H   0  0  0  0  0  0  0  0  0  0  0  0
    1.5591    9.7991   -5.3695 H   0  0  0  0  0  0  0  0  0  0  0  0
    1.1595   11.5504   -5.3695 H   0  0  0  0  0  0  0  0  0  0  0  0
    1.5927   10.1749   -2.7297 H   0  0  0  0  0  0  0  0  0  0  0  0
   -1.2286   10.0784   -3.4466 H   0  0  0  0  0  0  0  0  0  0  0  0
   -0.1907    9.0652   -4.5601 H   0  0  0  0  0  0  0  0  0  0  0  0
   -1.1602    7.8770   -2.5295 H   0  0  0  0  0  0  0  0  0  0  0  0
    0.6304    7.7626   -2.7900 H   0  0  0  0  0  0  0  0  0  0  0  0
    0.9070    9.5420   -1.5094 H   0  0  0  0  0  0  0  0  0  0  0  0
   -3.1098    9.0307    0.3862 H   0  0  0  0  0  0  0  0  0  0  0  0
   -2.8602    9.9704   -1.1242 H   0  0  0  0  0  0  0  0  0  0  0  0
   -2.6216    8.1900   -1.1242 H   0  0  0  0  0  0  0  0  0  0  0  0
   -0.9307    9.7709    1.9013 H   0  0  0  0  0  0  0  0  0  0  0  0
    0.2605   10.6141    0.8541 H   0  0  0  0  0  0  0  0  0  0  0  0
   -1.4597   11.1311    0.8541 H   0  0  0  0  0  0  0  0  0  0  0  0
    0.3481   12.4567   -3.9515 H   0  0  0  0  0  0  0  0  0  0  0  0
   -1.8522   11.9968   -3.0648 H   0  0  0  0  0  0  0  0  0  0  0  0
   -1.2255   10.7817   -1.9302 H   0  0  0  0  0  0  0  0  0  0  0  0
   -2.0341   13.4347   -1.2428 H   0  0  0  0  0  0  0  0  0  0  0  0
   -1.0748   12.3925   -0.1955 H   0  0  0  0  0  0  0  0  0  0  0  0
   -0.7657   15.6481   -2.1076 H   0  0  0  0  0  0  0  0  0  0  0  0
    0.5189   15.0257   -3.1980 H   0  0  0  0  0  0  0  0  0  0  0  0
   -1.1070   14.2620   -3.1980 H   0  0  0  0  0  0  0  0  0  0  0  0
    0.8376   13.7002    0.5092 H   0  0  0  0  0  0  0  0  0  0  0  0
   -1.2839   15.1477    0.2973 H   0  0  0  0  0  0  0  0  0  0  0  0
    0.0452   15.5750    1.4970 H   0  0  0  0  0  0  0  0  0  0  0  0
   -1.0149   17.5867    0.1666 H   0  0  0  0  0  0  0  0  0  0  0  0
    1.9574   16.2911   -2.2392 H   0  0  0  0  0  0  0  0  0  0  0  0
    3.4127   17.6517    0.1122 H   0  0  0  0  0  0  0  0  0  0  0  0
    4.1793   16.8432   -1.3264 H   0  0  0  0  0  0  0  0  0  0  0  0
    4.1964   19.3091   -1.5195 H   0  0  0  0  0  0  0  0  0  0  0  0
    3.2195   18.5063   -2.8109 H   0  0  0  0  0  0  0  0  0  0  0  0
    2.0226   20.4328   -2.0238 H   0  0  0  0  0  0  0  0  0  0  0  0
    3.1580   19.9360    0.2390 H   0  0  0  0  0  0  0  0  0  0  0  0
   -0.5143   18.0390   -3.1345 H   0  0  0  0  0  0  0  0  0  0  0  0
    0.2973   19.6001   -3.4962 H   0  0  0  0  0  0  0  0  0  0  0  0
    1.2448   18.0741   -3.4962 H   0  0  0  0  0  0  0  0  0  0  0  0
   -0.3850   19.6835    0.1505 H   0  0  0  0  0  0  0  0  0  0  0  0
   -0.2688   20.7379   -1.2992 H   0  0  0  0  0  0  0  0  0  0  0  0
   -1.3853   19.3307   -1.2992 H   0  0  0  0  0  0  0  0  0  0  0  0
    2.0407   15.1302    1.7235 H   0  0  0  0  0  0  0  0  0  0  0  0
    3.6065   14.5697    1.0446 H   0  0  0  0  0  0  0  0  0  0  0  0
    3.2026   16.3200    1.0446 H   0  0  0  0  0  0  0  0  0  0  0  0
    3.8579   14.8372   -1.7490 H   0  0  0  0  0  0  0  0  0  0  0  0
    3.4410   13.4585   -0.5829 H   0  0  0  0  0  0  0  0  0  0  0  0
    2.1424   14.0806   -3.2500 H   0  0  0  0  0  0  0  0  0  0  0  0
    3.1385   12.6450   -2.7870 H   0  0  0  0  0  0  0  0  0  0  0  0
    1.4154   12.0906    0.1636 H   0  0  0  0  0  0  0  0  0  0  0  0
    1.0244   10.7272   -0.9387 H   0  0  0  0  0  0  0  0  0  0  0  0
    2.6743   11.4373   -0.9387 H   0  0  0  0  0  0  0  0  0  0  0  0
  1  2  1  0
  2  3  1  0
  3  4  1  0
  4  5  1  0
  5  6  1  0
  6  7  1  0
  7  8  1  0
  7  9  1  0
  2 10  1  0
 10 11  1  0
 11 12  1  0
 12 13  1  0
 13 14  1  6
 13 15  1  0
 15 16  1  0
 16 17  1  0
 17 18  2  0
 18 19  1  0
 19 20  1  0
 20 21  1  0
 21 22  1  0
 22 23  1  0
 22 24  1  0
 24 25  1  0
 24 26  1  0
 19 27  1  0
 27 28  1  1
 27 29  1  0
 29 30  1  0
 30 31  1  0
 31 32  1  1
  7  5  1  0
 31 10  1  0
 31 13  1  0
 27 15  1  0
 24 18  1  0
  1 33  1  0
  1 34  1  0
  1 35  1  0
  2 36  1  1
  3 37  1  0
  3 38  1  0
  4 39  1  0
  4 40  1  0
  5 41  1  6
  8 42  1  0
  8 43  1  0
  8 44  1  0
  9 45  1  0
  9 46  1  0
  9 47  1  0
 10 48  1  6
 11 49  1  0
 11 50  1  0
 12 51  1  0
 12 52  1  0
 14 53  1  0
 14 54  1  0
 14 55  1  0
 15 56  1  1
 16 57  1  0
 16 58  1  0
 17 59  1  0
 19 60  1  6
 20 61  1  0
 20 62  1  0
 21 63  1  0
 21 64  1  0
 22 65  1  6
 23 66  1  0
 25 67  1  0
 25 68  1  0
 25 69  1  0
 26 70  1  0
 26 71  1  0
 26 72  1  0
 28 73  1  0
 28 74  1  0
 28 75  1  0
 29 76  1  0
 29 77  1  0
 30 78  1  0
 30 79  1  0
 32 80  1  0
 32 81  1  0
 32 82  1  0
M  END
>  <meeko>  (18) 
{"is_sidechain": [false], "intermolecular_energy": 2.731, "internal_energy": -0.839}

$$$$
EPH_relaxed_0001_pdb2pqr_Repair_227_r2_0001_out
     RDKit          3D

 82 86  0  0  0  0  0  0  0  0999 V2000
    0.8750   14.8980   -2.6210 C   0  0  0  0  0  0  0  0  0  0  0  0
    1.1650   14.2170   -3.9610 C   0  0  2  0  0  0  0  0  0  0  0  0
    0.4840   14.9420   -5.1400 C   0  0  0  0  0  0  0  0  0  0  0  0
    1.1130   14.6310   -6.5000 C   0  0  0  0  0  0  0  0  0  0  0  0
    0.8750   15.7340   -7.4860 C   0  0  2  0  0  0  0  0  0  0  0  0
    0.3830   15.3020   -8.7610 O   0  0  0  0  0  0  0  0  0  0  0  0
    1.6850   15.9100   -8.7570 C   0  0  0  0  0  0  0  0  0  0  0  0
    2.7960   14.9720   -9.1100 C   0  0  0  0  0  0  0  0  0  0  0  0
    1.7210   17.2610   -9.4020 C   0  0  0  0  0  0  0  0  0  0  0  0
    0.7150   12.7620   -3.9140 C   0  0  1  0  0  0  0  0  0  0  0  0
    1.8480   11.7730   -4.3000 C   0  0  0  0  0  0  0  0  0  0  0  0
    1.6480   10.5040   -3.4320 C   0  0  0  0  0  0  0  0  0  0  0  0
    0.2350   10.6650   -2.8250 C   0  0  1  0  0  0  0  0  0  0  0  0
   -0.7400   10.2000   -3.9520 C   0  0  0  0  0  0  0  0  0  0  0  0
   -0.0310    9.9070   -1.4840 C   0  0  2  0  0  0  0  0  0  0  0  0
    0.0740    8.3750   -1.5680 C   0  0  0  0  0  0  0  0  0  0  0  0
   -1.1990    7.6650   -1.8940 C   0  0  0  0  0  0  0  0  0  0  0  0
   -2.4310    8.2010   -1.8330 C   0  0  0  0  0  0  0  0  0  0  0  0
   -2.6450    9.6260   -1.3060 C   0  0  1  0  0  0  0  0  0  0  0  0
   -3.8250    9.6350   -0.2990 C   0  0  0  0  0  0  0  0  0  0  0  0
   -5.0980    9.0330   -0.8850 C   0  0  0  0  0  0  0  0  0  0  0  0
   -4.8610    7.5960   -1.3450 C   0  0  2  0  0  0  0  0  0  0  0  0
   -4.6030    6.7820   -0.1970 O   0  0  0  0  0  0  0  0  0  0  0  0
   -3.6880    7.4620   -2.3550 C   0  0  0  0  0  0  0  0  0  0  0  0
   -4.0940    8.0910   -3.7110 C   0  0  0  0  0  0  0  0  0  0  0  0
   -3.4640    5.9500   -2.6280 C   0  0  0  0  0  0  0  0  0  0  0  0
   -1.3530   10.3560   -0.7370 C   0  0  1  0  0  0  0  0  0  0  0  0
   -1.1580    9.9970    0.7680 C   0  0  0  0  0  0  0  0  0  0  0  0
   -1.5740   11.9140   -0.7970 C   0  0  0  0  0  0  0  0  0  0  0  0
   -1.1800   12.6220   -2.1070 C   0  0  0  0  0  0  0  0  0  0  0  0
    0.2280   12.2120   -2.5500 C   0  0  2  0  0  0  0  0  0  0  0  0
    1.2330   12.6860   -1.4460 C   0  0  0  0  0  0  0  0  0  0  0  0
    1.1612   14.2259   -1.7986 H   0  0  0  0  0  0  0  0  0  0  0  0
    1.4540   15.8306   -2.5508 H   0  0  0  0  0  0  0  0  0  0  0  0
   -0.1986   15.1268   -2.5508 H   0  0  0  0  0  0  0  0  0  0  0  0
    2.2513   14.2640   -4.1274 H   0  0  0  0  0  0  0  0  0  0  0  0
   -0.5733   14.6400   -5.1693 H   0  0  0  0  0  0  0  0  0  0  0  0
    0.6078   16.0214   -4.9681 H   0  0  0  0  0  0  0  0  0  0  0  0
    2.1970   14.4975   -6.3692 H   0  0  0  0  0  0  0  0  0  0  0  0
    0.6473   13.7146   -6.8916 H   0  0  0  0  0  0  0  0  0  0  0  0
    0.6107   16.4311   -6.6772 H   0  0  0  0  0  0  0  0  0  0  0  0
    3.2552   14.5843   -8.1887 H   0  0  0  0  0  0  0  0  0  0  0  0
    2.3954   14.1348   -9.7004 H   0  0  0  0  0  0  0  0  0  0  0  0
    3.5542   15.5073   -9.7004 H   0  0  0  0  0  0  0  0  0  0  0  0
    1.7417   18.0383   -8.6240 H   0  0  0  0  0  0  0  0  0  0  0  0
    2.6217   17.3446  -10.0279 H   0  0  0  0  0  0  0  0  0  0  0  0
    0.8260   17.3925  -10.0279 H   0  0  0  0  0  0  0  0  0  0  0  0
   -0.1243   12.8058   -4.6237 H   0  0  0  0  0  0  0  0  0  0  0  0
    1.7797   11.5165   -5.3675 H   0  0  0  0  0  0  0  0  0  0  0  0
    2.8383   12.2190   -4.1258 H   0  0  0  0  0  0  0  0  0  0  0  0
    1.7033    9.5969   -4.0518 H   0  0  0  0  0  0  0  0  0  0  0  0
    2.4244   10.4004   -2.6596 H   0  0  0  0  0  0  0  0  0  0  0  0
   -1.6448    9.7685   -3.4991 H   0  0  0  0  0  0  0  0  0  0  0  0
   -1.0177   11.0626   -4.5755 H   0  0  0  0  0  0  0  0  0  0  0  0
   -0.2445    9.4413   -4.5755 H   0  0  0  0  0  0  0  0  0  0  0  0
    0.8147   10.2299   -0.8591 H   0  0  0  0  0  0  0  0  0  0  0  0
    0.8105    8.1270   -2.3465 H   0  0  0  0  0  0  0  0  0  0  0  0
    0.3636    8.0343   -0.5630 H   0  0  0  0  0  0  0  0  0  0  0  0
   -1.1224    6.6144   -2.2109 H   0  0  0  0  0  0  0  0  0  0  0  0
   -2.8985   10.2390   -2.1835 H   0  0  0  0  0  0  0  0  0  0  0  0
   -3.5357    9.0530    0.5885 H   0  0  0  0  0  0  0  0  0  0  0  0
   -4.0382   10.6835   -0.0435 H   0  0  0  0  0  0  0  0  0  0  0  0
   -5.8859    9.0399   -0.1174 H   0  0  0  0  0  0  0  0  0  0  0  0
   -5.4026    9.6341   -1.7544 H   0  0  0  0  0  0  0  0  0  0  0  0
   -5.7676    7.2640   -1.8720 H   0  0  0  0  0  0  0  0  0  0  0  0
   -3.7140    7.0030    0.1270 H   0  0  0  0  0  0  0  0  0  0  0  0
   -4.6825    9.0027   -3.5307 H   0  0  0  0  0  0  0  0  0  0  0  0
   -3.1893    8.3456   -4.2826 H   0  0  0  0  0  0  0  0  0  0  0  0
   -4.6985    7.3714   -4.2826 H   0  0  0  0  0  0  0  0  0  0  0  0
   -3.3844    5.4126   -1.6715 H   0  0  0  0  0  0  0  0  0  0  0  0
   -4.3129    5.5515   -3.2029 H   0  0  0  0  0  0  0  0  0  0  0  0
   -2.5360    5.8148   -3.2029 H   0  0  0  0  0  0  0  0  0  0  0  0
   -1.5899   10.7921    1.3935 H   0  0  0  0  0  0  0  0  0  0  0  0
   -1.6625    9.0441    0.9860 H   0  0  0  0  0  0  0  0  0  0  0  0
   -0.0841    9.9015    0.9860 H   0  0  0  0  0  0  0  0  0  0  0  0
   -2.6434   12.1052   -0.6241 H   0  0  0  0  0  0  0  0  0  0  0  0
   -0.9015   12.3295   -0.0321 H   0  0  0  0  0  0  0  0  0  0  0  0
   -1.8986   12.3489   -2.8938 H   0  0  0  0  0  0  0  0  0  0  0  0
   -1.1912   13.7085   -1.9355 H   0  0  0  0  0  0  0  0  0  0  0  0
    0.8071   12.4851   -0.4519 H   0  0  0  0  0  0  0  0  0  0  0  0
    2.1819   12.1405   -1.5554 H   0  0  0  0  0  0  0  0  0  0  0  0
    1.4157   13.7652   -1.5554 H   0  0  0  0  0  0  0  0  0  0  0  0
  1  2  1  0
  2  3  1  0
  3  4  1  0
  4  5  1  0
  5  6  1  0
  6  7  1  0
  7  8  1  0
  7  9  1  0
  2 10  1  0
 10 11  1  0
 11 12  1  0
 12 13  1  0
 13 14  1  6
 13 15  1  0
 15 16  1  0
 16 17  1  0
 17 18  2  0
 18 19  1  0
 19 20  1  0
 20 21  1  0
 21 22  1  0
 22 23  1  0
 22 24  1  0
 24 25  1  0
 24 26  1  0
 19 27  1  0
 27 28  1  1
 27 29  1  0
 29 30  1  0
 30 31  1  0
 31 32  1  1
  7  5  1  0
 31 10  1  0
 31 13  1  0
 27 15  1  0
 24 18  1  0
  1 33  1  0
  1 34  1  0
  1 35  1  0
  2 36  1  6
  3 37  1  0
  3 38  1  0
  4 39  1  0
  4 40  1  0
  5 41  1  1
  8 42  1  0
  8 43  1  0
  8 44  1  0
  9 45  1  0
  9 46  1  0
  9 47  1  0
 10 48  1  6
 11 49  1  0
 11 50  1  0
 12 51  1  0
 12 52  1  0
 14 53  1  0
 14 54  1  0
 14 55  1  0
 15 56  1  1
 16 57  1  0
 16 58  1  0
 17 59  1  0
 19 60  1  6
 20 61  1  0
 20 62  1  0
 21 63  1  0
 21 64  1  0
 22 65  1  6
 23 66  1  0
 25 67  1  0
 25 68  1  0
 25 69  1  0
 26 70  1  0
 26 71  1  0
 26 72  1  0
 28 73  1  0
 28 74  1  0
 28 75  1  0
 29 76  1  0
 29 77  1  0
 30 78  1  0
 30 79  1  0
 32 80  1  0
 32 81  1  0
 32 82  1  0
M  END
>  <meeko>  (19) 
{"is_sidechain": [false], "intermolecular_energy": 2.731, "internal_energy": -0.839}

$$$$
