EPH_relaxed_0001_pdb2pqr_Repair_145_r2_0001_out
     RDKit          3D

 82 86  0  0  0  0  0  0  0  0999 V2000
    4.5100   17.7190   -0.7160 C   0  0  0  0  0  0  0  0  0  0  0  0
    3.1320   18.2950   -0.3750 C   0  0  2  0  0  0  0  0  0  0  0  0
    3.0930   18.9060    1.0400 C   0  0  0  0  0  0  0  0  0  0  0  0
    4.3930   18.7210    1.8270 C   0  0  0  0  0  0  0  0  0  0  0  0
    4.2750   19.2490    3.2250 C   0  0  2  0  0  0  0  0  0  0  0  0
    5.2880   20.1940    3.5950 O   0  0  0  0  0  0  0  0  0  0  0  0
    5.2840   18.9530    4.3190 C   0  0  0  0  0  0  0  0  0  0  0  0
    6.4840   18.0960    4.0630 C   0  0  0  0  0  0  0  0  0  0  0  0
    4.8530   19.0890    5.7460 C   0  0  0  0  0  0  0  0  0  0  0  0
    2.0690   17.2100   -0.5040 C   0  0  1  0  0  0  0  0  0  0  0  0
    0.7340   17.7490   -1.0820 C   0  0  0  0  0  0  0  0  0  0  0  0
    0.1350   16.6150   -1.9540 C   0  0  0  0  0  0  0  0  0  0  0  0
    0.9630   15.3620   -1.5870 C   0  0  1  0  0  0  0  0  0  0  0  0
    0.3350   14.8410   -0.2570 C   0  0  0  0  0  0  0  0  0  0  0  0
    1.0320   14.2380   -2.6720 C   0  0  2  0  0  0  0  0  0  0  0  0
   -0.3180   13.5950   -3.0320 C   0  0  0  0  0  0  0  0  0  0  0  0
   -0.6930   12.4000   -2.2200 C   0  0  0  0  0  0  0  0  0  0  0  0
    0.1440   11.6920   -1.4380 C   0  0  0  0  0  0  0  0  0  0  0  0
    1.6420   12.0180   -1.3900 C   0  0  1  0  0  0  0  0  0  0  0  0
    2.4610   10.7060   -1.5070 C   0  0  0  0  0  0  0  0  0  0  0  0
    2.0560    9.6690   -0.4640 C   0  0  0  0  0  0  0  0  0  0  0  0
    0.5730    9.3280   -0.5820 C   0  0  2  0  0  0  0  0  0  0  0  0
    0.3520    8.6570   -1.8260 O   0  0  0  0  0  0  0  0  0  0  0  0
   -0.3520   10.5740   -0.4880 C   0  0  0  0  0  0  0  0  0  0  0  0
   -0.3380   11.1240    0.9590 C   0  0  0  0  0  0  0  0  0  0  0  0
   -1.8070   10.1100   -0.7630 C   0  0  0  0  0  0  0  0  0  0  0  0
    2.1400   13.1410   -2.3990 C   0  0  1  0  0  0  0  0  0  0  0  0
    2.4830   12.5020   -3.7790 C   0  0  0  0  0  0  0  0  0  0  0  0
    3.4780   13.7650   -1.8530 C   0  0  0  0  0  0  0  0  0  0  0  0
    3.3460   14.9500   -0.8780 C   0  0  0  0  0  0  0  0  0  0  0  0
    2.3870   16.0100   -1.4300 C   0  0  2  0  0  0  0  0  0  0  0  0
    3.0040   16.5680   -2.7570 C   0  0  0  0  0  0  0  0  0  0  0  0
    5.0528   17.4921    0.2135 H   0  0  0  0  0  0  0  0  0  0  0  0
    4.3869   16.7970   -1.3032 H   0  0  0  0  0  0  0  0  0  0  0  0
    5.0797   18.4543   -1.3032 H   0  0  0  0  0  0  0  0  0  0  0  0
    2.9248   19.1048   -1.0901 H   0  0  0  0  0  0  0  0  0  0  0  0
    2.8937   19.9838    0.9473 H   0  0  0  0  0  0  0  0  0  0  0  0
    2.3034   18.3790    1.5957 H   0  0  0  0  0  0  0  0  0  0  0  0
    4.6340   17.6486    1.8702 H   0  0  0  0  0  0  0  0  0  0  0  0
    5.1872   19.2833    1.3141 H   0  0  0  0  0  0  0  0  0  0  0  0
    3.1788   19.1645    3.1899 H   0  0  0  0  0  0  0  0  0  0  0  0
    6.9223   17.7830    5.0221 H   0  0  0  0  0  0  0  0  0  0  0  0
    6.1838   17.2067    3.4894 H   0  0  0  0  0  0  0  0  0  0  0  0
    7.2278   18.6685    3.4894 H   0  0  0  0  0  0  0  0  0  0  0  0
    5.6903   18.8248    6.4087 H   0  0  0  0  0  0  0  0  0  0  0  0
    4.5463   20.1276    5.9390 H   0  0  0  0  0  0  0  0  0  0  0  0
    4.0057   18.4146    5.9390 H   0  0  0  0  0  0  0  0  0  0  0  0
    2.0192   16.8741    0.5423 H   0  0  0  0  0  0  0  0  0  0  0  0
    0.0429   18.0042   -0.2651 H   0  0  0  0  0  0  0  0  0  0  0  0
    0.8996   18.6595   -1.6766 H   0  0  0  0  0  0  0  0  0  0  0  0
   -0.9278   16.4618   -1.7153 H   0  0  0  0  0  0  0  0  0  0  0  0
    0.1819   16.8460   -3.0285 H   0  0  0  0  0  0  0  0  0  0  0  0
    0.8678   15.2830    0.5979 H   0  0  0  0  0  0  0  0  0  0  0  0
   -0.7262   15.1276   -0.2156 H   0  0  0  0  0  0  0  0  0  0  0  0
    0.4207   13.7451   -0.2156 H   0  0  0  0  0  0  0  0  0  0  0  0
    1.3464   14.7938   -3.5677 H   0  0  0  0  0  0  0  0  0  0  0  0
   -1.1022   14.3550   -2.9000 H   0  0  0  0  0  0  0  0  0  0  0  0
   -0.2183   13.2392   -4.0681 H   0  0  0  0  0  0  0  0  0  0  0  0
   -1.7414   12.0699   -2.2641 H   0  0  0  0  0  0  0  0  0  0  0  0
    1.8210   12.4835   -0.4095 H   0  0  0  0  0  0  0  0  0  0  0  0
    2.3025   10.2794   -2.5085 H   0  0  0  0  0  0  0  0  0  0  0  0
    3.5185   10.9560   -1.3363 H   0  0  0  0  0  0  0  0  0  0  0  0
    2.6489    8.7550   -0.6158 H   0  0  0  0  0  0  0  0  0  0  0  0
    2.2421   10.0860    0.5368 H   0  0  0  0  0  0  0  0  0  0  0  0
    0.3145    8.6813    0.2694 H   0  0  0  0  0  0  0  0  0  0  0  0
   -0.5860    8.4010   -1.8600 H   0  0  0  0  0  0  0  0  0  0  0  0
   -0.3594   10.2852    1.6703 H   0  0  0  0  0  0  0  0  0  0  0  0
    0.5755   11.7160    1.1174 H   0  0  0  0  0  0  0  0  0  0  0  0
   -1.2202   11.7617    1.1174 H   0  0  0  0  0  0  0  0  0  0  0  0
   -2.3259    9.9445    0.1927 H   0  0  0  0  0  0  0  0  0  0  0  0
   -2.3361   10.8840   -1.3383 H   0  0  0  0  0  0  0  0  0  0  0  0
   -1.7904    9.1726   -1.3383 H   0  0  0  0  0  0  0  0  0  0  0  0
    2.9979   11.5428   -3.6211 H   0  0  0  0  0  0  0  0  0  0  0  0
    1.5552   12.3314   -4.3448 H   0  0  0  0  0  0  0  0  0  0  0  0
    3.1379   13.1809   -4.3448 H   0  0  0  0  0  0  0  0  0  0  0  0
    4.0295   12.9672   -1.3340 H   0  0  0  0  0  0  0  0  0  0  0  0
    3.9852   14.1764   -2.7381 H   0  0  0  0  0  0  0  0  0  0  0  0
    2.9609   14.5827    0.0847 H   0  0  0  0  0  0  0  0  0  0  0  0
    4.3373   15.4082   -0.7465 H   0  0  0  0  0  0  0  0  0  0  0  0
    3.8002   17.2880   -2.5168 H   0  0  0  0  0  0  0  0  0  0  0  0
    3.4250   15.7378   -3.3431 H   0  0  0  0  0  0  0  0  0  0  0  0
    2.2202   17.0701   -3.3431 H   0  0  0  0  0  0  0  0  0  0  0  0
  1  2  1  0
  2  3  1  0
  3  4  1  0
  4  5  1  0
  5  6  1  0
  6  7  1  0
  7  8  1  0
  7  9  1  0
  2 10  1  0
 10 11  1  0
 11 12  1  0
 12 13  1  0
 13 14  1  1
 13 15  1  0
 15 16  1  0
 16 17  1  0
 17 18  2  0
 18 19  1  0
 19 20  1  0
 20 21  1  0
 21 22  1  0
 22 23  1  0
 22 24  1  0
 24 25  1  0
 24 26  1  0
 19 27  1  0
 27 28  1  6
 27 29  1  0
 29 30  1  0
 30 31  1  0
 31 32  1  6
  7  5  1  0
 31 10  1  0
 31 13  1  0
 27 15  1  0
 24 18  1  0
  1 33  1  0
  1 34  1  0
  1 35  1  0
  2 36  1  6
  3 37  1  0
  3 38  1  0
  4 39  1  0
  4 40  1  0
  5 41  1  1
  8 42  1  0
  8 43  1  0
  8 44  1  0
  9 45  1  0
  9 46  1  0
  9 47  1  0
 10 48  1  1
 11 49  1  0
 11 50  1  0
 12 51  1  0
 12 52  1  0
 14 53  1  0
 14 54  1  0
 14 55  1  0
 15 56  1  6
 16 57  1  0
 16 58  1  0
 17 59  1  0
 19 60  1  1
 20 61  1  0
 20 62  1  0
 21 63  1  0
 21 64  1  0
 22 65  1  1
 23 66  1  0
 25 67  1  0
 25 68  1  0
 25 69  1  0
 26 70  1  0
 26 71  1  0
 26 72  1  0
 28 73  1  0
 28 74  1  0
 28 75  1  0
 29 76  1  0
 29 77  1  0
 30 78  1  0
 30 79  1  0
 32 80  1  0
 32 81  1  0
 32 82  1  0
M  END
>  <meeko>  (1) 
{"is_sidechain": [false], "intermolecular_energy": 2.731, "internal_energy": -0.839}

$$$$
EPH_relaxed_0001_pdb2pqr_Repair_145_r2_0001_out
     RDKit          3D

 82 86  0  0  0  0  0  0  0  0999 V2000
    3.8250   17.9550    0.6730 C   0  0  0  0  0  0  0  0  0  0  0  0
    2.9650   18.3420   -0.5340 C   0  0  2  0  0  0  0  0  0  0  0  0
    2.2300   19.6800   -0.3180 C   0  0  0  0  0  0  0  0  0  0  0  0
    1.2190   19.6490    0.8310 C   0  0  0  0  0  0  0  0  0  0  0  0
   -0.1130   20.1940    0.4130 C   0  0  2  0  0  0  0  0  0  0  0  0
   -1.1100   20.1940    1.4420 O   0  0  0  0  0  0  0  0  0  0  0  0
   -1.3680   19.3490    0.3100 C   0  0  0  0  0  0  0  0  0  0  0  0
   -1.3520   17.8860    0.6260 C   0  0  0  0  0  0  0  0  0  0  0  0
   -2.4870   19.8310   -0.5600 C   0  0  0  0  0  0  0  0  0  0  0  0
    1.9580   17.2360   -0.8300 C   0  0  1  0  0  0  0  0  0  0  0  0
    0.8220   17.7020   -1.7790 C   0  0  0  0  0  0  0  0  0  0  0  0
    0.4540   16.4850   -2.6670 C   0  0  0  0  0  0  0  0  0  0  0  0
    1.1450   15.2820   -1.9850 C   0  0  1  0  0  0  0  0  0  0  0  0
    0.1900   14.8790   -0.8180 C   0  0  0  0  0  0  0  0  0  0  0  0
    1.4770   14.0630   -2.9060 C   0  0  2  0  0  0  0  0  0  0  0  0
    0.2570   13.3720   -3.5400 C   0  0  0  0  0  0  0  0  0  0  0  0
   -0.3270   12.2530   -2.7440 C   0  0  0  0  0  0  0  0  0  0  0  0
    0.2720   11.6320   -1.7110 C   0  0  0  0  0  0  0  0  0  0  0  0
    1.7110   11.9800   -1.3100 C   0  0  1  0  0  0  0  0  0  0  0  0
    2.5170   10.6730   -1.0900 C   0  0  0  0  0  0  0  0  0  0  0  0
    1.8460    9.7310   -0.0950 C   0  0  0  0  0  0  0  0  0  0  0  0
    0.4390    9.3620   -0.5570 C   0  0  2  0  0  0  0  0  0  0  0  0
    0.5370    8.5760   -1.7490 O   0  0  0  0  0  0  0  0  0  0  0  0
   -0.4640   10.6000   -0.8200 C   0  0  0  0  0  0  0  0  0  0  0  0
   -0.8170   11.2820    0.5240 C   0  0  0  0  0  0  0  0  0  0  0  0
   -1.8060   10.0940   -1.4160 C   0  0  0  0  0  0  0  0  0  0  0  0
    2.4650   13.0100   -2.2570 C   0  0  1  0  0  0  0  0  0  0  0  0
    3.1430   12.2490   -3.4370 C   0  0  0  0  0  0  0  0  0  0  0  0
    3.6250   13.6990   -1.4460 C   0  0  0  0  0  0  0  0  0  0  0  0
    3.2610   14.9670   -0.6520 C   0  0  0  0  0  0  0  0  0  0  0  0
    2.4880   15.9590   -1.5280 C   0  0  2  0  0  0  0  0  0  0  0  0
    3.4320   16.3990   -2.6980 C   0  0  0  0  0  0  0  0  0  0  0  0
    3.2856   18.1977    1.6004 H   0  0  0  0  0  0  0  0  0  0  0  0
    4.0349   16.8756    0.6427 H   0  0  0  0  0  0  0  0  0  0  0  0
    4.7721   18.5137    0.6427 H   0  0  0  0  0  0  0  0  0  0  0  0
    3.6392   18.4710   -1.3935 H   0  0  0  0  0  0  0  0  0  0  0  0
    2.9786   20.4562   -0.1009 H   0  0  0  0  0  0  0  0  0  0  0  0
    1.6642   19.8878   -1.2381 H   0  0  0  0  0  0  0  0  0  0  0  0
    1.0898   18.6086    1.1640 H   0  0  0  0  0  0  0  0  0  0  0  0
    1.6065   20.2787    1.6455 H   0  0  0  0  0  0  0  0  0  0  0  0
    0.3671   20.8907   -0.2899 H   0  0  0  0  0  0  0  0  0  0  0  0
   -1.3505   17.7466    1.7171 H   0  0  0  0  0  0  0  0  0  0  0  0
   -2.2450   17.4083    0.1966 H   0  0  0  0  0  0  0  0  0  0  0  0
   -0.4488   17.4280    0.1966 H   0  0  0  0  0  0  0  0  0  0  0  0
   -3.3146   20.1875    0.0709 H   0  0  0  0  0  0  0  0  0  0  0  0
   -2.1290   20.6547   -1.1951 H   0  0  0  0  0  0  0  0  0  0  0  0
   -2.8396   19.0050   -1.1951 H   0  0  0  0  0  0  0  0  0  0  0  0
    1.6384   16.9984    0.1954 H   0  0  0  0  0  0  0  0  0  0  0  0
   -0.0527   18.0225   -1.1941 H   0  0  0  0  0  0  0  0  0  0  0  0
    1.1452   18.5557   -2.3928 H   0  0  0  0  0  0  0  0  0  0  0  0
   -0.6362   16.3412   -2.6965 H   0  0  0  0  0  0  0  0  0  0  0  0
    0.7782   16.6162   -3.7099 H   0  0  0  0  0  0  0  0  0  0  0  0
    0.6800   15.0858    0.1449 H   0  0  0  0  0  0  0  0  0  0  0  0
   -0.7407   15.4611   -0.8882 H   0  0  0  0  0  0  0  0  0  0  0  0
   -0.0423   13.8061   -0.8882 H   0  0  0  0  0  0  0  0  0  0  0  0
    2.0174   14.5374   -3.7384 H   0  0  0  0  0  0  0  0  0  0  0  0
   -0.5261   14.1308   -3.6850 H   0  0  0  0  0  0  0  0  0  0  0  0
    0.6150   12.9234   -4.4784 H   0  0  0  0  0  0  0  0  0  0  0  0
   -1.3323   11.9063   -3.0253 H   0  0  0  0  0  0  0  0  0  0  0  0
    1.6372   12.5370   -0.3643 H   0  0  0  0  0  0  0  0  0  0  0  0
    2.6167   10.1538   -2.0546 H   0  0  0  0  0  0  0  0  0  0  0  0
    3.4974   10.9516   -0.6763 H   0  0  0  0  0  0  0  0  0  0  0  0
    2.4474    8.8144   -0.0052 H   0  0  0  0  0  0  0  0  0  0  0  0
    1.7740   10.2405    0.8772 H   0  0  0  0  0  0  0  0  0  0  0  0
   -0.0370    8.7938    0.2558 H   0  0  0  0  0  0  0  0  0  0  0  0
    0.3840    7.6480   -1.5020 H   0  0  0  0  0  0  0  0  0  0  0  0
   -0.4867   10.6439    1.3569 H   0  0  0  0  0  0  0  0  0  0  0  0
   -0.3099   12.2562    0.5851 H   0  0  0  0  0  0  0  0  0  0  0  0
   -1.9052   11.4305    0.5851 H   0  0  0  0  0  0  0  0  0  0  0  0
   -2.4952    9.8341   -0.5990 H   0  0  0  0  0  0  0  0  0  0  0  0
   -2.2535   10.8851   -2.0356 H   0  0  0  0  0  0  0  0  0  0  0  0
   -1.6198    9.2044   -2.0356 H   0  0  0  0  0  0  0  0  0  0  0  0
    3.8245   11.4840   -3.0366 H   0  0  0  0  0  0  0  0  0  0  0  0
    2.3708   11.7656   -4.0534 H   0  0  0  0  0  0  0  0  0  0  0  0
    3.7120   12.9605   -4.0534 H   0  0  0  0  0  0  0  0  0  0  0  0
    4.0155   12.9597   -0.7311 H   0  0  0  0  0  0  0  0  0  0  0  0
    4.3471   14.0332   -2.2055 H   0  0  0  0  0  0  0  0  0  0  0  0
    2.6375   14.6857    0.2094 H   0  0  0  0  0  0  0  0  0  0  0  0
    4.1905   15.4480   -0.3134 H   0  0  0  0  0  0  0  0  0  0  0  0
    4.3551   16.8293   -2.2823 H   0  0  0  0  0  0  0  0  0  0  0  0
    3.6814   15.5243   -3.3167 H   0  0  0  0  0  0  0  0  0  0  0  0
    2.9225   17.1524   -3.3167 H   0  0  0  0  0  0  0  0  0  0  0  0
  1  2  1  0
  2  3  1  0
  3  4  1  0
  4  5  1  0
  5  6  1  0
  6  7  1  0
  7  8  1  0
  7  9  1  0
  2 10  1  0
 10 11  1  0
 11 12  1  0
 12 13  1  0
 13 14  1  1
 13 15  1  0
 15 16  1  0
 16 17  1  0
 17 18  2  0
 18 19  1  0
 19 20  1  0
 20 21  1  0
 21 22  1  0
 22 23  1  0
 22 24  1  0
 24 25  1  0
 24 26  1  0
 19 27  1  0
 27 28  1  6
 27 29  1  0
 29 30  1  0
 30 31  1  0
 31 32  1  6
  7  5  1  0
 31 10  1  0
 31 13  1  0
 27 15  1  0
 24 18  1  0
  1 33  1  0
  1 34  1  0
  1 35  1  0
  2 36  1  6
  3 37  1  0
  3 38  1  0
  4 39  1  0
  4 40  1  0
  5 41  1  6
  8 42  1  0
  8 43  1  0
  8 44  1  0
  9 45  1  0
  9 46  1  0
  9 47  1  0
 10 48  1  1
 11 49  1  0
 11 50  1  0
 12 51  1  0
 12 52  1  0
 14 53  1  0
 14 54  1  0
 14 55  1  0
 15 56  1  6
 16 57  1  0
 16 58  1  0
 17 59  1  0
 19 60  1  1
 20 61  1  0
 20 62  1  0
 21 63  1  0
 21 64  1  0
 22 65  1  1
 23 66  1  0
 25 67  1  0
 25 68  1  0
 25 69  1  0
 26 70  1  0
 26 71  1  0
 26 72  1  0
 28 73  1  0
 28 74  1  0
 28 75  1  0
 29 76  1  0
 29 77  1  0
 30 78  1  0
 30 79  1  0
 32 80  1  0
 32 81  1  0
 32 82  1  0
M  END
>  <meeko>  (2) 
{"is_sidechain": [false], "intermolecular_energy": 2.731, "internal_energy": -0.839}

$$$$
EPH_relaxed_0001_pdb2pqr_Repair_145_r2_0001_out
     RDKit          3D

 82 86  0  0  0  0  0  0  0  0999 V2000
    2.8870   17.1890    0.3380 C   0  0  0  0  0  0  0  0  0  0  0  0
    2.4350   17.3450   -1.1170 C   0  0  2  0  0  0  0  0  0  0  0  0
    1.7310   18.6940   -1.3650 C   0  0  0  0  0  0  0  0  0  0  0  0
    1.3950   19.4580   -0.0820 C   0  0  0  0  0  0  0  0  0  0  0  0
    0.0540   20.1220   -0.1670 C   0  0  2  0  0  0  0  0  0  0  0  0
   -0.6600   20.1930    1.0740 O   0  0  0  0  0  0  0  0  0  0  0  0
   -1.2580   19.3890    0.0440 C   0  0  0  0  0  0  0  0  0  0  0  0
   -1.2930   17.9260    0.3580 C   0  0  0  0  0  0  0  0  0  0  0  0
   -2.5080   19.9790   -0.5310 C   0  0  0  0  0  0  0  0  0  0  0  0
    1.5100   16.1960   -1.5000 C   0  0  1  0  0  0  0  0  0  0  0  0
    0.7360   16.4670   -2.8180 C   0  0  0  0  0  0  0  0  0  0  0  0
    0.5910   15.1020   -3.5400 C   0  0  0  0  0  0  0  0  0  0  0  0
    0.9850   14.0530   -2.4740 C   0  0  1  0  0  0  0  0  0  0  0  0
   -0.2950   13.8690   -1.5990 C   0  0  0  0  0  0  0  0  0  0  0  0
    1.5170   12.6860   -3.0130 C   0  0  2  0  0  0  0  0  0  0  0  0
    0.5100   11.8800   -3.8520 C   0  0  0  0  0  0  0  0  0  0  0  0
   -0.3410   10.9250   -3.0830 C   0  0  0  0  0  0  0  0  0  0  0  0
   -0.1120   10.5130   -1.8220 C   0  0  0  0  0  0  0  0  0  0  0  0
    1.1570   10.9410   -1.0730 C   0  0  1  0  0  0  0  0  0  0  0  0
    1.7940    9.7050   -0.3850 C   0  0  0  0  0  0  0  0  0  0  0  0
    0.8090    8.9620    0.5120 C   0  0  0  0  0  0  0  0  0  0  0  0
   -0.4110    8.5020   -0.2820 C   0  0  2  0  0  0  0  0  0  0  0  0
   -0.0000    7.5070   -1.2240 O   0  0  0  0  0  0  0  0  0  0  0  0
   -1.1310    9.6610   -1.0260 C   0  0  0  0  0  0  0  0  0  0  0  0
   -1.8360   10.5810    0.0010 C   0  0  0  0  0  0  0  0  0  0  0  0
   -2.2560    9.0420   -1.8990 C   0  0  0  0  0  0  0  0  0  0  0  0
    2.2100   11.7810   -1.9160 C   0  0  1  0  0  0  0  0  0  0  0  0
    3.1730   10.8180   -2.6760 C   0  0  0  0  0  0  0  0  0  0  0  0
    3.1070   12.6190   -0.9290 C   0  0  0  0  0  0  0  0  0  0  0  0
    2.5850   14.0110   -0.5270 C   0  0  0  0  0  0  0  0  0  0  0  0
    2.1610   14.8150   -1.7600 C   0  0  2  0  0  0  0  0  0  0  0  0
    3.4330   15.0350   -2.6480 C   0  0  0  0  0  0  0  0  0  0  0  0
    2.0639   17.4731    1.0101 H   0  0  0  0  0  0  0  0  0  0  0  0
    3.1679   16.1419    0.5244 H   0  0  0  0  0  0  0  0  0  0  0  0
    3.7539   17.8399    0.5244 H   0  0  0  0  0  0  0  0  0  0  0  0
    3.3360   17.3225   -1.7476 H   0  0  0  0  0  0  0  0  0  0  0  0
    2.3916   19.3224   -1.9804 H   0  0  0  0  0  0  0  0  0  0  0  0
    0.7771   18.4714   -1.8656 H   0  0  0  0  0  0  0  0  0  0  0  0
    1.3906   18.7527    0.7621 H   0  0  0  0  0  0  0  0  0  0  0  0
    2.1560   20.2393    0.0610 H   0  0  0  0  0  0  0  0  0  0  0  0
    0.4080   20.7851   -0.9701 H   0  0  0  0  0  0  0  0  0  0  0  0
   -1.2964   17.7851    1.4489 H   0  0  0  0  0  0  0  0  0  0  0  0
   -2.2021   17.4803   -0.0721 H   0  0  0  0  0  0  0  0  0  0  0  0
   -0.4063   17.4374   -0.0721 H   0  0  0  0  0  0  0  0  0  0  0  0
   -3.1744   20.2935    0.2857 H   0  0  0  0  0  0  0  0  0  0  0  0
   -2.2507   20.8507   -1.1506 H   0  0  0  0  0  0  0  0  0  0  0  0
   -3.0174   19.2263   -1.1506 H   0  0  0  0  0  0  0  0  0  0  0  0
    0.8854   16.1525   -0.5955 H   0  0  0  0  0  0  0  0  0  0  0  0
   -0.2567   16.8851   -2.5953 H   0  0  0  0  0  0  0  0  0  0  0  0
    1.2710   17.1926   -3.4484 H   0  0  0  0  0  0  0  0  0  0  0  0
   -0.4459   14.9469   -3.8727 H   0  0  0  0  0  0  0  0  0  0  0  0
    1.2192   15.0377   -4.4407 H   0  0  0  0  0  0  0  0  0  0  0  0
   -0.0203   13.9085   -0.5346 H   0  0  0  0  0  0  0  0  0  0  0  0
   -1.0110   14.6734   -1.8230 H   0  0  0  0  0  0  0  0  0  0  0  0
   -0.7554   12.8954   -1.8230 H   0  0  0  0  0  0  0  0  0  0  0  0
    2.3064   12.9995   -3.7120 H   0  0  0  0  0  0  0  0  0  0  0  0
   -0.1547   12.5927   -4.3621 H   0  0  0  0  0  0  0  0  0  0  0  0
    1.1098   11.2665   -4.5404 H   0  0  0  0  0  0  0  0  0  0  0  0
   -1.2310   10.5237   -3.5897 H   0  0  0  0  0  0  0  0  0  0  0  0
    0.8311   11.6650   -0.3117 H   0  0  0  0  0  0  0  0  0  0  0  0
    2.1527    9.0145   -1.1626 H   0  0  0  0  0  0  0  0  0  0  0  0
    2.6179   10.0638    0.2494 H   0  0  0  0  0  0  0  0  0  0  0  0
    1.3089    8.0832    0.9454 H   0  0  0  0  0  0  0  0  0  0  0  0
    0.4740    9.6445    1.3069 H   0  0  0  0  0  0  0  0  0  0  0  0
   -1.1365    8.0928    0.4364 H   0  0  0  0  0  0  0  0  0  0  0  0
    0.6780    6.9580   -0.7950 H   0  0  0  0  0  0  0  0  0  0  0  0
   -1.5846   10.2529    1.0204 H   0  0  0  0  0  0  0  0  0  0  0  0
   -1.4992   11.6181   -0.1439 H   0  0  0  0  0  0  0  0  0  0  0  0
   -2.9250   10.5255   -0.1439 H   0  0  0  0  0  0  0  0  0  0  0  0
   -3.0325    8.6147   -1.2475 H   0  0  0  0  0  0  0  0  0  0  0  0
   -2.6992    9.8233   -2.5340 H   0  0  0  0  0  0  0  0  0  0  0  0
   -1.8333    8.2495   -2.5340 H   0  0  0  0  0  0  0  0  0  0  0  0
    3.7568   10.2342   -1.9491 H   0  0  0  0  0  0  0  0  0  0  0  0
    2.5856   10.1352   -3.3075 H   0  0  0  0  0  0  0  0  0  0  0  0
    3.8558   11.4054   -3.3075 H   0  0  0  0  0  0  0  0  0  0  0  0
    3.2275   12.0301   -0.0077 H   0  0  0  0  0  0  0  0  0  0  0  0
    4.0397   12.8099   -1.4800 H   0  0  0  0  0  0  0  0  0  0  0  0
    1.7185   13.8915    0.1400 H   0  0  0  0  0  0  0  0  0  0  0  0
    3.3931   14.5541   -0.0151 H   0  0  0  0  0  0  0  0  0  0  0  0
    4.3098   15.1867   -2.0014 H   0  0  0  0  0  0  0  0  0  0  0  0
    3.5942   14.1514   -3.2830 H   0  0  0  0  0  0  0  0  0  0  0  0
    3.2880   15.9214   -3.2830 H   0  0  0  0  0  0  0  0  0  0  0  0
  1  2  1  0
  2  3  1  0
  3  4  1  0
  4  5  1  0
  5  6  1  0
  6  7  1  0
  7  8  1  0
  7  9  1  0
  2 10  1  0
 10 11  1  0
 11 12  1  0
 12 13  1  0
 13 14  1  1
 13 15  1  0
 15 16  1  0
 16 17  1  0
 17 18  2  0
 18 19  1  0
 19 20  1  0
 20 21  1  0
 21 22  1  0
 22 23  1  0
 22 24  1  0
 24 25  1  0
 24 26  1  0
 19 27  1  0
 27 28  1  6
 27 29  1  0
 29 30  1  0
 30 31  1  0
 31 32  1  6
  7  5  1  0
 31 10  1  0
 31 13  1  0
 27 15  1  0
 24 18  1  0
  1 33  1  0
  1 34  1  0
  1 35  1  0
  2 36  1  6
  3 37  1  0
  3 38  1  0
  4 39  1  0
  4 40  1  0
  5 41  1  6
  8 42  1  0
  8 43  1  0
  8 44  1  0
  9 45  1  0
  9 46  1  0
  9 47  1  0
 10 48  1  1
 11 49  1  0
 11 50  1  0
 12 51  1  0
 12 52  1  0
 14 53  1  0
 14 54  1  0
 14 55  1  0
 15 56  1  6
 16 57  1  0
 16 58  1  0
 17 59  1  0
 19 60  1  1
 20 61  1  0
 20 62  1  0
 21 63  1  0
 21 64  1  0
 22 65  1  1
 23 66  1  0
 25 67  1  0
 25 68  1  0
 25 69  1  0
 26 70  1  0
 26 71  1  0
 26 72  1  0
 28 73  1  0
 28 74  1  0
 28 75  1  0
 29 76  1  0
 29 77  1  0
 30 78  1  0
 30 79  1  0
 32 80  1  0
 32 81  1  0
 32 82  1  0
M  END
>  <meeko>  (3) 
{"is_sidechain": [false], "intermolecular_energy": 2.731, "internal_energy": -0.839}

$$$$
EPH_relaxed_0001_pdb2pqr_Repair_145_r2_0001_out
     RDKit          3D

 82 86  0  0  0  0  0  0  0  0999 V2000
    2.3740   18.1150   -2.2710 C   0  0  0  0  0  0  0  0  0  0  0  0
    1.7700   17.3470   -1.0920 C   0  0  2  0  0  0  0  0  0  0  0  0
    2.8390   16.9240   -0.0640 C   0  0  0  0  0  0  0  0  0  0  0  0
    3.8470   18.0290    0.2650 C   0  0  0  0  0  0  0  0  0  0  0  0
    3.5380   18.6870    1.5760 C   0  0  2  0  0  0  0  0  0  0  0  0
    3.9020   20.0720    1.6510 O   0  0  0  0  0  0  0  0  0  0  0  0
    4.6050   19.1830    2.5350 C   0  0  0  0  0  0  0  0  0  0  0  0
    6.0610   19.0400    2.2230 C   0  0  0  0  0  0  0  0  0  0  0  0
    4.2440   19.3580    3.9770 C   0  0  0  0  0  0  0  0  0  0  0  0
    1.0210   16.1200   -1.5990 C   0  0  1  0  0  0  0  0  0  0  0  0
    0.5200   16.2880   -3.0590 C   0  0  0  0  0  0  0  0  0  0  0  0
    0.6180   14.8930   -3.7280 C   0  0  0  0  0  0  0  0  0  0  0  0
    0.8520   13.9130   -2.5550 C   0  0  1  0  0  0  0  0  0  0  0  0
   -0.5660   13.6630   -1.9520 C   0  0  0  0  0  0  0  0  0  0  0  0
    1.5730   12.5710   -2.9080 C   0  0  2  0  0  0  0  0  0  0  0  0
    0.8170   11.6640   -3.8950 C   0  0  0  0  0  0  0  0  0  0  0  0
   -0.1110   10.6750   -3.2690 C   0  0  0  0  0  0  0  0  0  0  0  0
   -0.1200   10.3240   -1.9700 C   0  0  0  0  0  0  0  0  0  0  0  0
    0.9350   10.8710   -0.9990 C   0  0  1  0  0  0  0  0  0  0  0  0
    1.4970    9.7100   -0.1370 C   0  0  0  0  0  0  0  0  0  0  0  0
    0.3990    8.9260    0.5750 C   0  0  0  0  0  0  0  0  0  0  0  0
   -0.5980    8.3500   -0.4280 C   0  0  2  0  0  0  0  0  0  0  0  0
    0.0640    7.3570   -1.2170 O   0  0  0  0  0  0  0  0  0  0  0  0
   -1.2230    9.4260   -1.3580 C   0  0  0  0  0  0  0  0  0  0  0  0
   -2.1850   10.3250   -0.5420 C   0  0  0  0  0  0  0  0  0  0  0  0
   -2.1000    8.6960   -2.4110 C   0  0  0  0  0  0  0  0  0  0  0  0
    2.0820   11.7580   -1.6500 C   0  0  1  0  0  0  0  0  0  0  0  0
    3.2430   10.8440   -2.1500 C   0  0  0  0  0  0  0  0  0  0  0  0
    2.6990   12.6930   -0.5430 C   0  0  0  0  0  0  0  0  0  0  0  0
    2.0140   14.0550   -0.3230 C   0  0  0  0  0  0  0  0  0  0  0  0
    1.8020   14.7830   -1.6540 C   0  0  2  0  0  0  0  0  0  0  0  0
    3.2130   15.0670   -2.2740 C   0  0  0  0  0  0  0  0  0  0  0  0
    3.0123   18.9266   -1.8916 H   0  0  0  0  0  0  0  0  0  0  0  0
    2.9778   17.4299   -2.8842 H   0  0  0  0  0  0  0  0  0  0  0  0
    1.5658   18.5403   -2.8842 H   0  0  0  0  0  0  0  0  0  0  0  0
    1.0706   18.0246   -0.5805 H   0  0  0  0  0  0  0  0  0  0  0  0
    2.3298   16.6302    0.8657 H   0  0  0  0  0  0  0  0  0  0  0  0
    3.4057   16.0944   -0.5119 H   0  0  0  0  0  0  0  0  0  0  0  0
    4.8542   17.5897    0.3150 H   0  0  0  0  0  0  0  0  0  0  0  0
    3.7895   18.7927   -0.5246 H   0  0  0  0  0  0  0  0  0  0  0  0
    2.6589   18.0417    1.7200 H   0  0  0  0  0  0  0  0  0  0  0  0
    6.6332   18.9838    3.1608 H   0  0  0  0  0  0  0  0  0  0  0  0
    6.2225   18.1217    1.6394 H   0  0  0  0  0  0  0  0  0  0  0  0
    6.3980   19.9094    1.6394 H   0  0  0  0  0  0  0  0  0  0  0  0
    5.0546   18.9650    4.6082 H   0  0  0  0  0  0  0  0  0  0  0  0
    4.0978   20.4270    4.1913 H   0  0  0  0  0  0  0  0  0  0  0  0
    3.3142   18.8106    4.1913 H   0  0  0  0  0  0  0  0  0  0  0  0
    0.2271   16.0607   -0.8400 H   0  0  0  0  0  0  0  0  0  0  0  0
   -0.5228   16.6382   -3.0639 H   0  0  0  0  0  0  0  0  0  0  0  0
    1.1245   17.0298   -3.6014 H   0  0  0  0  0  0  0  0  0  0  0  0
   -0.3153   14.6496   -4.2570 H   0  0  0  0  0  0  0  0  0  0  0  0
    1.4216   14.8456   -4.4776 H   0  0  0  0  0  0  0  0  0  0  0  0
   -0.5045   13.6738   -0.8538 H   0  0  0  0  0  0  0  0  0  0  0  0
   -1.2523   14.4540   -2.2887 H   0  0  0  0  0  0  0  0  0  0  0  0
   -0.9404   12.6850   -2.2887 H   0  0  0  0  0  0  0  0  0  0  0  0
    2.4671   12.9186   -3.4463 H   0  0  0  0  0  0  0  0  0  0  0  0
    0.2271   12.3073   -4.5645 H   0  0  0  0  0  0  0  0  0  0  0  0
    1.5852   11.0736   -4.4159 H   0  0  0  0  0  0  0  0  0  0  0  0
   -0.8499   10.1926   -3.9258 H   0  0  0  0  0  0  0  0  0  0  0  0
    0.4111   11.5935   -0.3559 H   0  0  0  0  0  0  0  0  0  0  0  0
    2.0537    9.0227   -0.7909 H   0  0  0  0  0  0  0  0  0  0  0  0
    2.1466   10.1503    0.6338 H   0  0  0  0  0  0  0  0  0  0  0  0
    0.8554    8.1018    1.1428 H   0  0  0  0  0  0  0  0  0  0  0  0
   -0.1374    9.6079    1.2512 H   0  0  0  0  0  0  0  0  0  0  0  0
   -1.4281    7.9127    0.1461 H   0  0  0  0  0  0  0  0  0  0  0  0
   -0.2030    7.4900   -2.1420 H   0  0  0  0  0  0  0  0  0  0  0  0
   -2.0136   10.1648    0.5327 H   0  0  0  0  0  0  0  0  0  0  0  0
   -1.9991   11.3805   -0.7896 H   0  0  0  0  0  0  0  0  0  0  0  0
   -3.2255   10.0681   -0.7896 H   0  0  0  0  0  0  0  0  0  0  0  0
   -2.8477    8.0737   -1.8975 H   0  0  0  0  0  0  0  0  0  0  0  0
   -2.6114    9.4389   -3.0407 H   0  0  0  0  0  0  0  0  0  0  0  0
   -1.4622    8.0583   -3.0407 H   0  0  0  0  0  0  0  0  0  0  0  0
    3.7771   10.4235   -1.2852 H   0  0  0  0  0  0  0  0  0  0  0  0
    2.8297   10.0263   -2.7587 H   0  0  0  0  0  0  0  0  0  0  0  0
    3.9409   11.4377   -2.7587 H   0  0  0  0  0  0  0  0  0  0  0  0
    2.6659   12.1460    0.4108 H   0  0  0  0  0  0  0  0  0  0  0  0
    3.7106   12.9343   -0.9014 H   0  0  0  0  0  0  0  0  0  0  0  0
    1.0382   13.8935    0.1583 H   0  0  0  0  0  0  0  0  0  0  0  0
    2.6607   14.6739    0.3163 H   0  0  0  0  0  0  0  0  0  0  0  0
    3.9454   15.2144   -1.4666 H   0  0  0  0  0  0  0  0  0  0  0  0
    3.5192   14.2125   -2.8953 H   0  0  0  0  0  0  0  0  0  0  0  0
    3.1648   15.9735   -2.8953 H   0  0  0  0  0  0  0  0  0  0  0  0
  1  2  1  0
  2  3  1  0
  3  4  1  0
  4  5  1  0
  5  6  1  0
  6  7  1  0
  7  8  1  0
  7  9  1  0
  2 10  1  0
 10 11  1  0
 11 12  1  0
 12 13  1  0
 13 14  1  1
 13 15  1  0
 15 16  1  0
 16 17  1  0
 17 18  2  0
 18 19  1  0
 19 20  1  0
 20 21  1  0
 21 22  1  0
 22 23  1  0
 22 24  1  0
 24 25  1  0
 24 26  1  0
 19 27  1  0
 27 28  1  6
 27 29  1  0
 29 30  1  0
 30 31  1  0
 31 32  1  6
  7  5  1  0
 31 10  1  0
 31 13  1  0
 27 15  1  0
 24 18  1  0
  1 33  1  0
  1 34  1  0
  1 35  1  0
  2 36  1  1
  3 37  1  0
  3 38  1  0
  4 39  1  0
  4 40  1  0
  5 41  1  1
  8 42  1  0
  8 43  1  0
  8 44  1  0
  9 45  1  0
  9 46  1  0
  9 47  1  0
 10 48  1  1
 11 49  1  0
 11 50  1  0
 12 51  1  0
 12 52  1  0
 14 53  1  0
 14 54  1  0
 14 55  1  0
 15 56  1  6
 16 57  1  0
 16 58  1  0
 17 59  1  0
 19 60  1  1
 20 61  1  0
 20 62  1  0
 21 63  1  0
 21 64  1  0
 22 65  1  1
 23 66  1  0
 25 67  1  0
 25 68  1  0
 25 69  1  0
 26 70  1  0
 26 71  1  0
 26 72  1  0
 28 73  1  0
 28 74  1  0
 28 75  1  0
 29 76  1  0
 29 77  1  0
 30 78  1  0
 30 79  1  0
 32 80  1  0
 32 81  1  0
 32 82  1  0
M  END
>  <meeko>  (4) 
{"is_sidechain": [false], "intermolecular_energy": 2.731, "internal_energy": -0.839}

$$$$
EPH_relaxed_0001_pdb2pqr_Repair_145_r2_0001_out
     RDKit          3D

 82 86  0  0  0  0  0  0  0  0999 V2000
   -1.6240    8.7020   -1.9060 C   0  0  0  0  0  0  0  0  0  0  0  0
   -2.0190    9.1570   -0.4980 C   0  0  2  0  0  0  0  0  0  0  0  0
   -3.5260    9.4610   -0.3870 C   0  0  0  0  0  0  0  0  0  0  0  0
   -4.4010    8.2080   -0.2960 C   0  0  0  0  0  0  0  0  0  0  0  0
   -5.1190    7.9390   -1.5840 C   0  0  2  0  0  0  0  0  0  0  0  0
   -6.3130    8.7090   -1.7760 O   0  0  0  0  0  0  0  0  0  0  0  0
   -6.4870    7.2880   -1.6590 C   0  0  0  0  0  0  0  0  0  0  0  0
   -7.2190    6.8650   -0.4230 C   0  0  0  0  0  0  0  0  0  0  0  0
   -6.8940    6.6230   -2.9360 C   0  0  0  0  0  0  0  0  0  0  0  0
   -1.2090   10.3870   -0.1030 C   0  0  1  0  0  0  0  0  0  0  0  0
   -0.2310   10.1070    1.0690 C   0  0  0  0  0  0  0  0  0  0  0  0
    1.0340   10.9660    0.8100 C   0  0  0  0  0  0  0  0  0  0  0  0
    0.6150   11.9520   -0.3060 C   0  0  1  0  0  0  0  0  0  0  0  0
   -0.1600   13.0880    0.4320 C   0  0  0  0  0  0  0  0  0  0  0  0
    1.7690   12.5220   -1.1930 C   0  0  2  0  0  0  0  0  0  0  0  0
    2.8140   13.3650   -0.4420 C   0  0  0  0  0  0  0  0  0  0  0  0
    2.5230   14.8280   -0.3730 C   0  0  0  0  0  0  0  0  0  0  0  0
    1.6220   15.4830   -1.1290 C   0  0  0  0  0  0  0  0  0  0  0  0
    0.8520   14.7580   -2.2410 C   0  0  1  0  0  0  0  0  0  0  0  0
    0.8720   15.6200   -3.5310 C   0  0  0  0  0  0  0  0  0  0  0  0
    0.3600   17.0380   -3.2950 C   0  0  0  0  0  0  0  0  0  0  0  0
    1.1870   17.7450   -2.2240 C   0  0  2  0  0  0  0  0  0  0  0  0
    2.5120   17.9470   -2.7240 O   0  0  0  0  0  0  0  0  0  0  0  0
    1.2480   16.9650   -0.8820 C   0  0  0  0  0  0  0  0  0  0  0  0
   -0.1380   17.0070   -0.1910 C   0  0  0  0  0  0  0  0  0  0  0  0
    2.2260   17.7140    0.0620 C   0  0  0  0  0  0  0  0  0  0  0  0
    1.2760   13.2500   -2.5090 C   0  0  1  0  0  0  0  0  0  0  0  0
    2.4650   13.2020   -3.5160 C   0  0  0  0  0  0  0  0  0  0  0  0
    0.0790   12.4940   -3.1980 C   0  0  0  0  0  0  0  0  0  0  0  0
   -0.9650   11.8500   -2.2660 C   0  0  0  0  0  0  0  0  0  0  0  0
   -0.2860   11.0070   -1.1820 C   0  0  2  0  0  0  0  0  0  0  0  0
    0.4830    9.8420   -1.8940 C   0  0  0  0  0  0  0  0  0  0  0  0
   -0.9044    7.8731   -1.8351 H   0  0  0  0  0  0  0  0  0  0  0  0
   -2.5202    8.3643   -2.4471 H   0  0  0  0  0  0  0  0  0  0  0  0
   -1.1637    9.5419   -2.4471 H   0  0  0  0  0  0  0  0  0  0  0  0
   -1.7980    8.3288    0.1914 H   0  0  0  0  0  0  0  0  0  0  0  0
   -3.6925   10.0673    0.5156 H   0  0  0  0  0  0  0  0  0  0  0  0
   -3.8161    9.9898   -1.3069 H   0  0  0  0  0  0  0  0  0  0  0  0
   -3.7633    7.3444   -0.0562 H   0  0  0  0  0  0  0  0  0  0  0  0
   -5.1541    8.3717    0.4889 H   0  0  0  0  0  0  0  0  0  0  0  0
   -4.1695    7.7217   -2.0951 H   0  0  0  0  0  0  0  0  0  0  0  0
   -6.6571    7.1897    0.4651 H   0  0  0  0  0  0  0  0  0  0  0  0
   -8.2182    7.3249   -0.4131 H   0  0  0  0  0  0  0  0  0  0  0  0
   -7.3194    5.7696   -0.4131 H   0  0  0  0  0  0  0  0  0  0  0  0
   -7.4558    5.7051   -2.7085 H   0  0  0  0  0  0  0  0  0  0  0  0
   -7.5288    7.3064   -3.5192 H   0  0  0  0  0  0  0  0  0  0  0  0
   -5.9967    6.3687   -3.5192 H   0  0  0  0  0  0  0  0  0  0  0  0
   -2.0296   11.0803    0.1336 H   0  0  0  0  0  0  0  0  0  0  0  0
   -0.6938   10.3926    2.0252 H   0  0  0  0  0  0  0  0  0  0  0  0
    0.0220    9.0380    1.1259 H   0  0  0  0  0  0  0  0  0  0  0  0
    1.3263   11.5108    1.7198 H   0  0  0  0  0  0  0  0  0  0  0  0
    1.9016   10.3542    0.5218 H   0  0  0  0  0  0  0  0  0  0  0  0
   -0.0657   12.9498    1.5192 H   0  0  0  0  0  0  0  0  0  0  0  0
    0.2617   14.0636    0.1485 H   0  0  0  0  0  0  0  0  0  0  0  0
   -1.2222   13.0513    0.1485 H   0  0  0  0  0  0  0  0  0  0  0  0
    2.2945   11.6095   -1.5109 H   0  0  0  0  0  0  0  0  0  0  0  0
    2.8827   12.9832    0.5873 H   0  0  0  0  0  0  0  0  0  0  0  0
    3.7501   13.2674   -1.0114 H   0  0  0  0  0  0  0  0  0  0  0  0
    3.0932   15.4208    0.3575 H   0  0  0  0  0  0  0  0  0  0  0  0
   -0.1808   14.6535   -1.8770 H   0  0  0  0  0  0  0  0  0  0  0  0
    1.9061   15.6756   -3.9020 H   0  0  0  0  0  0  0  0  0  0  0  0
    0.2046   15.1414   -4.2628 H   0  0  0  0  0  0  0  0  0  0  0  0
    0.4266   17.6060   -4.2347 H   0  0  0  0  0  0  0  0  0  0  0  0
   -0.6839   16.9822   -2.9528 H   0  0  0  0  0  0  0  0  0  0  0  0
    0.6938   18.7038   -2.0063 H   0  0  0  0  0  0  0  0  0  0  0  0
    3.1050   17.3500   -2.2360 H   0  0  0  0  0  0  0  0  0  0  0  0
   -0.0037   17.0029    0.9008 H   0  0  0  0  0  0  0  0  0  0  0  0
   -0.6700   17.9217   -0.4916 H   0  0  0  0  0  0  0  0  0  0  0  0
   -0.7244   16.1262   -0.4916 H   0  0  0  0  0  0  0  0  0  0  0  0
    1.9562   17.5074    1.1082 H   0  0  0  0  0  0  0  0  0  0  0  0
    3.2536   17.3697   -0.1266 H   0  0  0  0  0  0  0  0  0  0  0  0
    2.1614   18.7958   -0.1266 H   0  0  0  0  0  0  0  0  0  0  0  0
    3.4141   13.1637   -2.9612 H   0  0  0  0  0  0  0  0  0  0  0  0
    2.3737   12.3068   -4.1487 H   0  0  0  0  0  0  0  0  0  0  0  0
    2.4462   14.1016   -4.1487 H   0  0  0  0  0  0  0  0  0  0  0  0
   -0.4475   13.2177   -3.8376 H   0  0  0  0  0  0  0  0  0  0  0  0
    0.5414   11.6535   -3.7363 H   0  0  0  0  0  0  0  0  0  0  0  0
   -1.5574   12.6432   -1.7866 H   0  0  0  0  0  0  0  0  0  0  0  0
   -1.6135   11.1943   -2.8656 H   0  0  0  0  0  0  0  0  0  0  0  0
    0.9225    9.1761   -1.1367 H   0  0  0  0  0  0  0  0  0  0  0  0
   -0.2164    9.2713   -2.5225 H   0  0  0  0  0  0  0  0  0  0  0  0
    1.2827   10.2608   -2.5225 H   0  0  0  0  0  0  0  0  0  0  0  0
  1  2  1  0
  2  3  1  0
  3  4  1  0
  4  5  1  0
  5  6  1  0
  6  7  1  0
  7  8  1  0
  7  9  1  0
  2 10  1  0
 10 11  1  0
 11 12  1  0
 12 13  1  0
 13 14  1  1
 13 15  1  0
 15 16  1  0
 16 17  1  0
 17 18  2  0
 18 19  1  0
 19 20  1  0
 20 21  1  0
 21 22  1  0
 22 23  1  0
 22 24  1  0
 24 25  1  0
 24 26  1  0
 19 27  1  0
 27 28  1  6
 27 29  1  0
 29 30  1  0
 30 31  1  0
 31 32  1  6
  7  5  1  0
 31 10  1  0
 31 13  1  0
 27 15  1  0
 24 18  1  0
  1 33  1  0
  1 34  1  0
  1 35  1  0
  2 36  1  1
  3 37  1  0
  3 38  1  0
  4 39  1  0
  4 40  1  0
  5 41  1  6
  8 42  1  0
  8 43  1  0
  8 44  1  0
  9 45  1  0
  9 46  1  0
  9 47  1  0
 10 48  1  1
 11 49  1  0
 11 50  1  0
 12 51  1  0
 12 52  1  0
 14 53  1  0
 14 54  1  0
 14 55  1  0
 15 56  1  6
 16 57  1  0
 16 58  1  0
 17 59  1  0
 19 60  1  1
 20 61  1  0
 20 62  1  0
 21 63  1  0
 21 64  1  0
 22 65  1  1
 23 66  1  0
 25 67  1  0
 25 68  1  0
 25 69  1  0
 26 70  1  0
 26 71  1  0
 26 72  1  0
 28 73  1  0
 28 74  1  0
 28 75  1  0
 29 76  1  0
 29 77  1  0
 30 78  1  0
 30 79  1  0
 32 80  1  0
 32 81  1  0
 32 82  1  0
M  END
>  <meeko>  (5) 
{"is_sidechain": [false], "intermolecular_energy": 2.731, "internal_energy": -0.839}

$$$$
EPH_relaxed_0001_pdb2pqr_Repair_145_r2_0001_out
     RDKit          3D

 82 86  0  0  0  0  0  0  0  0999 V2000
   -0.6490    7.8910   -0.4590 C   0  0  0  0  0  0  0  0  0  0  0  0
   -1.0880    9.2670    0.0500 C   0  0  2  0  0  0  0  0  0  0  0  0
   -2.3390    9.7870   -0.6880 C   0  0  0  0  0  0  0  0  0  0  0  0
   -3.6580    9.3240   -0.0650 C   0  0  0  0  0  0  0  0  0  0  0  0
   -4.0500    7.9590   -0.5440 C   0  0  2  0  0  0  0  0  0  0  0  0
   -4.1750    7.8380   -1.9670 O   0  0  0  0  0  0  0  0  0  0  0  0
   -5.3800    7.6550   -1.2070 C   0  0  0  0  0  0  0  0  0  0  0  0
   -6.4050    8.7230   -1.4250 C   0  0  0  0  0  0  0  0  0  0  0  0
   -5.8790    6.2440   -1.1970 C   0  0  0  0  0  0  0  0  0  0  0  0
    0.0550   10.2640   -0.0960 C   0  0  1  0  0  0  0  0  0  0  0  0
    1.4480    9.5810   -0.0930 C   0  0  0  0  0  0  0  0  0  0  0  0
    2.3470   10.3920   -1.0610 C   0  0  0  0  0  0  0  0  0  0  0  0
    1.5550   11.6930   -1.3300 C   0  0  1  0  0  0  0  0  0  0  0  0
    1.8470   12.6030   -0.0960 C   0  0  0  0  0  0  0  0  0  0  0  0
    1.8670   12.4270   -2.6750 C   0  0  2  0  0  0  0  0  0  0  0  0
    3.3130   12.9340   -2.8210 C   0  0  0  0  0  0  0  0  0  0  0  0
    3.5540   14.3240   -2.3310 C   0  0  0  0  0  0  0  0  0  0  0  0
    2.5990   15.2340   -2.0600 C   0  0  0  0  0  0  0  0  0  0  0  0
    1.1210   14.9310   -2.3350 C   0  0  1  0  0  0  0  0  0  0  0  0
    0.4710   16.1380   -3.0600 C   0  0  0  0  0  0  0  0  0  0  0  0
    0.6670   17.4490   -2.3050 C   0  0  0  0  0  0  0  0  0  0  0  0
    2.1510   17.7450   -2.1030 C   0  0  2  0  0  0  0  0  0  0  0  0
    2.7480   18.0000   -3.3770 O   0  0  0  0  0  0  0  0  0  0  0  0
    2.9130   16.5940   -1.3890 C   0  0  0  0  0  0  0  0  0  0  0  0
    2.4720   16.5180    0.0940 C   0  0  0  0  0  0  0  0  0  0  0  0
    4.4220   16.9580   -1.3740 C   0  0  0  0  0  0  0  0  0  0  0  0
    0.8200   13.5490   -3.0600 C   0  0  1  0  0  0  0  0  0  0  0  0
    0.9080   13.7290   -4.6060 C   0  0  0  0  0  0  0  0  0  0  0  0
   -0.6620   13.1170   -2.7470 C   0  0  0  0  0  0  0  0  0  0  0  0
   -0.8890   12.2910   -1.4660 C   0  0  0  0  0  0  0  0  0  0  0  0
    0.0930   11.1180   -1.3880 C   0  0  2  0  0  0  0  0  0  0  0  0
   -0.1920   10.1740   -2.6060 C   0  0  0  0  0  0  0  0  0  0  0  0
   -0.4391    7.2331    0.3973 H   0  0  0  0  0  0  0  0  0  0  0  0
   -1.4519    7.4527   -1.0699 H   0  0  0  0  0  0  0  0  0  0  0  0
    0.2594    7.9987   -1.0699 H   0  0  0  0  0  0  0  0  0  0  0  0
   -1.3527    9.1582    1.1121 H   0  0  0  0  0  0  0  0  0  0  0  0
   -2.3168   10.8867   -0.6766 H   0  0  0  0  0  0  0  0  0  0  0  0
   -2.3040    9.3769   -1.7081 H   0  0  0  0  0  0  0  0  0  0  0  0
   -3.5458    9.2990    1.0290 H   0  0  0  0  0  0  0  0  0  0  0  0
   -4.4452   10.0312   -0.3652 H   0  0  0  0  0  0  0  0  0  0  0  0
   -3.5190    7.4858    0.2951 H   0  0  0  0  0  0  0  0  0  0  0  0
   -6.7608    9.0937   -0.4524 H   0  0  0  0  0  0  0  0  0  0  0  0
   -5.9559    9.5521   -1.9914 H   0  0  0  0  0  0  0  0  0  0  0  0
   -7.2519    8.3083   -1.9914 H   0  0  0  0  0  0  0  0  0  0  0  0
   -5.9989    5.9049   -0.1575 H   0  0  0  0  0  0  0  0  0  0  0  0
   -6.8492    6.1945   -1.7131 H   0  0  0  0  0  0  0  0  0  0  0  0
   -5.1557    5.5956   -1.7131 H   0  0  0  0  0  0  0  0  0  0  0  0
   -0.1485   10.9059    0.7738 H   0  0  0  0  0  0  0  0  0  0  0  0
    1.8743    9.5949    0.9209 H   0  0  0  0  0  0  0  0  0  0  0  0
    1.3731    8.5306   -0.4108 H   0  0  0  0  0  0  0  0  0  0  0  0
    3.3169   10.6173   -0.5936 H   0  0  0  0  0  0  0  0  0  0  0  0
    2.5691    9.8397   -1.9860 H   0  0  0  0  0  0  0  0  0  0  0  0
    1.6651   12.0360    0.8289 H   0  0  0  0  0  0  0  0  0  0  0  0
    2.8961   12.9327   -0.1236 H   0  0  0  0  0  0  0  0  0  0  0  0
    1.1857   13.4816   -0.1236 H   0  0  0  0  0  0  0  0  0  0  0  0
    1.7562   11.6204   -3.4147 H   0  0  0  0  0  0  0  0  0  0  0  0
    3.9696   12.2559   -2.2562 H   0  0  0  0  0  0  0  0  0  0  0  0
    3.5219   12.9514   -3.9009 H   0  0  0  0  0  0  0  0  0  0  0  0
    4.5995   14.6303   -2.1786 H   0  0  0  0  0  0  0  0  0  0  0  0
    0.6511   14.7903   -1.3504 H   0  0  0  0  0  0  0  0  0  0  0  0
    0.9231   16.2350   -4.0581 H   0  0  0  0  0  0  0  0  0  0  0  0
   -0.6105   15.9471   -3.1221 H   0  0  0  0  0  0  0  0  0  0  0  0
    0.2116   18.2679   -2.8812 H   0  0  0  0  0  0  0  0  0  0  0  0
    0.1888   17.3611   -1.3183 H   0  0  0  0  0  0  0  0  0  0  0  0
    2.2257   18.6248   -1.4469 H   0  0  0  0  0  0  0  0  0  0  0  0
    3.3180   18.7820   -3.2840 H   0  0  0  0  0  0  0  0  0  0  0  0
    3.3461   16.6686    0.7446 H   0  0  0  0  0  0  0  0  0  0  0  0
    1.7259   17.3008    0.2952 H   0  0  0  0  0  0  0  0  0  0  0  0
    2.0309   15.5306    0.2952 H   0  0  0  0  0  0  0  0  0  0  0  0
    4.7687   17.0416   -0.3334 H   0  0  0  0  0  0  0  0  0  0  0  0
    4.9939   16.1721   -1.8890 H   0  0  0  0  0  0  0  0  0  0  0  0
    4.5727   17.9183   -1.8890 H   0  0  0  0  0  0  0  0  0  0  0  0
    1.3804   14.6953   -4.8363 H   0  0  0  0  0  0  0  0  0  0  0  0
    1.5097   12.9149   -5.0363 H   0  0  0  0  0  0  0  0  0  0  0  0
   -0.1040   13.7038   -5.0363 H   0  0  0  0  0  0  0  0  0  0  0  0
   -1.2651   14.0331   -2.6635 H   0  0  0  0  0  0  0  0  0  0  0  0
   -0.9483   12.4504   -3.5739 H   0  0  0  0  0  0  0  0  0  0  0  0
   -0.7448   12.9397   -0.5894 H   0  0  0  0  0  0  0  0  0  0  0  0
   -1.9132   11.8900   -1.4844 H   0  0  0  0  0  0  0  0  0  0  0  0
   -0.4916    9.1815   -2.2384 H   0  0  0  0  0  0  0  0  0  0  0  0
   -1.0020   10.5985   -3.2173 H   0  0  0  0  0  0  0  0  0  0  0  0
    0.7176   10.0794   -3.2173 H   0  0  0  0  0  0  0  0  0  0  0  0
  1  2  1  0
  2  3  1  0
  3  4  1  0
  4  5  1  0
  5  6  1  0
  6  7  1  0
  7  8  1  0
  7  9  1  0
  2 10  1  0
 10 11  1  0
 11 12  1  0
 12 13  1  0
 13 14  1  1
 13 15  1  0
 15 16  1  0
 16 17  1  0
 17 18  2  0
 18 19  1  0
 19 20  1  0
 20 21  1  0
 21 22  1  0
 22 23  1  0
 22 24  1  0
 24 25  1  0
 24 26  1  0
 19 27  1  0
 27 28  1  6
 27 29  1  0
 29 30  1  0
 30 31  1  0
 31 32  1  6
  7  5  1  0
 31 10  1  0
 31 13  1  0
 27 15  1  0
 24 18  1  0
  1 33  1  0
  1 34  1  0
  1 35  1  0
  2 36  1  1
  3 37  1  0
  3 38  1  0
  4 39  1  0
  4 40  1  0
  5 41  1  1
  8 42  1  0
  8 43  1  0
  8 44  1  0
  9 45  1  0
  9 46  1  0
  9 47  1  0
 10 48  1  1
 11 49  1  0
 11 50  1  0
 12 51  1  0
 12 52  1  0
 14 53  1  0
 14 54  1  0
 14 55  1  0
 15 56  1  6
 16 57  1  0
 16 58  1  0
 17 59  1  0
 19 60  1  1
 20 61  1  0
 20 62  1  0
 21 63  1  0
 21 64  1  0
 22 65  1  1
 23 66  1  0
 25 67  1  0
 25 68  1  0
 25 69  1  0
 26 70  1  0
 26 71  1  0
 26 72  1  0
 28 73  1  0
 28 74  1  0
 28 75  1  0
 29 76  1  0
 29 77  1  0
 30 78  1  0
 30 79  1  0
 32 80  1  0
 32 81  1  0
 32 82  1  0
M  END
>  <meeko>  (6) 
{"is_sidechain": [false], "intermolecular_energy": 2.731, "internal_energy": -0.839}

$$$$
EPH_relaxed_0001_pdb2pqr_Repair_145_r2_0001_out
     RDKit          3D

 82 86  0  0  0  0  0  0  0  0999 V2000
    3.6780   17.8970   -1.3580 C   0  0  0  0  0  0  0  0  0  0  0  0
    2.6460   17.4390   -2.3930 C   0  0  2  0  0  0  0  0  0  0  0  0
    1.2280   17.9450   -2.0630 C   0  0  0  0  0  0  0  0  0  0  0  0
    1.1670   18.8390   -0.8220 C   0  0  0  0  0  0  0  0  0  0  0  0
   -0.0850   19.6630   -0.7930 C   0  0  2  0  0  0  0  0  0  0  0  0
   -0.4280   20.1850    0.4970 O   0  0  0  0  0  0  0  0  0  0  0  0
   -1.3490   19.2390   -0.0690 C   0  0  0  0  0  0  0  0  0  0  0  0
   -1.4250   17.9430    0.6750 C   0  0  0  0  0  0  0  0  0  0  0  0
   -2.6520   19.8440   -0.4910 C   0  0  0  0  0  0  0  0  0  0  0  0
    2.6470   15.9170   -2.4880 C   0  0  1  0  0  0  0  0  0  0  0  0
    4.0720   15.3310   -2.6740 C   0  0  0  0  0  0  0  0  0  0  0  0
    4.1030   13.9830   -1.9090 C   0  0  0  0  0  0  0  0  0  0  0  0
    2.6200   13.6780   -1.5940 C   0  0  1  0  0  0  0  0  0  0  0  0
    2.0480   13.0630   -2.9090 C   0  0  0  0  0  0  0  0  0  0  0  0
    2.3510   12.7560   -0.3600 C   0  0  2  0  0  0  0  0  0  0  0  0
    2.9190   11.3300   -0.4760 C   0  0  0  0  0  0  0  0  0  0  0  0
    1.9960   10.3230   -1.0760 C   0  0  0  0  0  0  0  0  0  0  0  0
    0.6700   10.4790   -1.2440 C   0  0  0  0  0  0  0  0  0  0  0  0
   -0.0480   11.7300   -0.7210 C   0  0  1  0  0  0  0  0  0  0  0  0
   -1.3400   11.3090    0.0280 C   0  0  0  0  0  0  0  0  0  0  0  0
   -2.2490   10.4280   -0.8240 C   0  0  0  0  0  0  0  0  0  0  0  0
   -1.5180    9.1670   -1.2760 C   0  0  2  0  0  0  0  0  0  0  0  0
   -1.2430    8.3560   -0.1300 O   0  0  0  0  0  0  0  0  0  0  0  0
   -0.1940    9.4650   -2.0340 C   0  0  0  0  0  0  0  0  0  0  0  0
   -0.5150   10.0760   -3.4210 C   0  0  0  0  0  0  0  0  0  0  0  0
    0.5140    8.1110   -2.3100 C   0  0  0  0  0  0  0  0  0  0  0  0
    0.8440   12.7400    0.1210 C   0  0  1  0  0  0  0  0  0  0  0  0
    0.8600   12.3130    1.6210 C   0  0  0  0  0  0  0  0  0  0  0  0
    0.1860   14.1690    0.0730 C   0  0  0  0  0  0  0  0  0  0  0  0
    0.5830   15.0780   -1.1050 C   0  0  0  0  0  0  0  0  0  0  0  0
    2.1050   15.1280   -1.2700 C   0  0  2  0  0  0  0  0  0  0  0  0
    2.7070   15.7630    0.0290 C   0  0  0  0  0  0  0  0  0  0  0  0
    3.2845   17.7224   -0.3457 H   0  0  0  0  0  0  0  0  0  0  0  0
    4.6097   17.3278   -1.4925 H   0  0  0  0  0  0  0  0  0  0  0  0
    3.8810   18.9697   -1.4925 H   0  0  0  0  0  0  0  0  0  0  0  0
    2.9335   17.8731   -3.3620 H   0  0  0  0  0  0  0  0  0  0  0  0
    0.8553   18.5197   -2.9237 H   0  0  0  0  0  0  0  0  0  0  0  0
    0.6116   17.0588   -1.8514 H   0  0  0  0  0  0  0  0  0  0  0  0
    1.1971   18.2046    0.0761 H   0  0  0  0  0  0  0  0  0  0  0  0
    2.0275   19.5237   -0.8501 H   0  0  0  0  0  0  0  0  0  0  0  0
    0.0944   20.0145   -1.8198 H   0  0  0  0  0  0  0  0  0  0  0  0
   -1.4134   18.1402    1.7571 H   0  0  0  0  0  0  0  0  0  0  0  0
   -2.3553   17.4206    0.4074 H   0  0  0  0  0  0  0  0  0  0  0  0
   -0.5621   17.3154    0.4074 H   0  0  0  0  0  0  0  0  0  0  0  0
   -3.2362   20.1152    0.4007 H   0  0  0  0  0  0  0  0  0  0  0  0
   -2.4603   20.7452   -1.0919 H   0  0  0  0  0  0  0  0  0  0  0  0
   -3.2168   19.1160   -1.0919 H   0  0  0  0  0  0  0  0  0  0  0  0
    1.9758   15.7856   -3.3496 H   0  0  0  0  0  0  0  0  0  0  0  0
    4.2774   15.1656   -3.7419 H   0  0  0  0  0  0  0  0  0  0  0  0
    4.8370   16.0217   -2.2896 H   0  0  0  0  0  0  0  0  0  0  0  0
    4.5375   13.1906   -2.5362 H   0  0  0  0  0  0  0  0  0  0  0  0
    4.7203   14.0338   -0.9999 H   0  0  0  0  0  0  0  0  0  0  0  0
    1.3183   12.2785   -2.6598 H   0  0  0  0  0  0  0  0  0  0  0  0
    1.5535   13.8502   -3.4971 H   0  0  0  0  0  0  0  0  0  0  0  0
    2.8689   12.6268   -3.4971 H   0  0  0  0  0  0  0  0  0  0  0  0
    2.9336   13.2470    0.4334 H   0  0  0  0  0  0  0  0  0  0  0  0
    3.8246   11.3745   -1.0988 H   0  0  0  0  0  0  0  0  0  0  0  0
    3.1085   10.9933    0.5539 H   0  0  0  0  0  0  0  0  0  0  0  0
    2.4370    9.3720   -1.4094 H   0  0  0  0  0  0  0  0  0  0  0  0
   -0.3078   12.3258   -1.6084 H   0  0  0  0  0  0  0  0  0  0  0  0
   -1.0572   10.7523    0.9336 H   0  0  0  0  0  0  0  0  0  0  0  0
   -1.8973   12.2250    0.2737 H   0  0  0  0  0  0  0  0  0  0  0  0
   -3.1302   10.1406   -0.2316 H   0  0  0  0  0  0  0  0  0  0  0  0
   -2.5537   10.9960   -1.7154 H   0  0  0  0  0  0  0  0  0  0  0  0
   -2.1751    8.6422   -1.9851 H   0  0  0  0  0  0  0  0  0  0  0  0
   -2.0440    8.3460    0.4220 H   0  0  0  0  0  0  0  0  0  0  0  0
   -1.0228   11.0426   -3.2872 H   0  0  0  0  0  0  0  0  0  0  0  0
    0.4200   10.2273   -3.9803 H   0  0  0  0  0  0  0  0  0  0  0  0
   -1.1702    9.3919   -3.9803 H   0  0  0  0  0  0  0  0  0  0  0  0
    0.7666    7.6279   -1.3546 H   0  0  0  0  0  0  0  0  0  0  0  0
   -0.1574    7.4568   -2.8855 H   0  0  0  0  0  0  0  0  0  0  0  0
    1.4344    8.2891   -2.8855 H   0  0  0  0  0  0  0  0  0  0  0  0
    0.8264   13.2093    2.2578 H   0  0  0  0  0  0  0  0  0  0  0  0
   -0.0151   11.6806    1.8316 H   0  0  0  0  0  0  0  0  0  0  0  0
    1.7800   11.7479    1.8316 H   0  0  0  0  0  0  0  0  0  0  0  0
   -0.9047   14.0318    0.0343 H   0  0  0  0  0  0  0  0  0  0  0  0
    0.5546   14.6855    0.9715 H   0  0  0  0  0  0  0  0  0  0  0  0
    0.1335   14.6861   -2.0293 H   0  0  0  0  0  0  0  0  0  0  0  0
    0.2186   16.0957   -0.9011 H   0  0  0  0  0  0  0  0  0  0  0  0
    2.2561   15.2874    0.9125 H   0  0  0  0  0  0  0  0  0  0  0  0
    3.7956   15.6058    0.0434 H   0  0  0  0  0  0  0  0  0  0  0  0
    2.4920   16.8417    0.0434 H   0  0  0  0  0  0  0  0  0  0  0  0
  1  2  1  0
  2  3  1  0
  3  4  1  0
  4  5  1  0
  5  6  1  0
  6  7  1  0
  7  8  1  0
  7  9  1  0
  2 10  1  0
 10 11  1  0
 11 12  1  0
 12 13  1  0
 13 14  1  6
 13 15  1  0
 15 16  1  0
 16 17  1  0
 17 18  2  0
 18 19  1  0
 19 20  1  0
 20 21  1  0
 21 22  1  0
 22 23  1  0
 22 24  1  0
 24 25  1  0
 24 26  1  0
 19 27  1  0
 27 28  1  1
 27 29  1  0
 29 30  1  0
 30 31  1  0
 31 32  1  1
  7  5  1  0
 31 10  1  0
 31 13  1  0
 27 15  1  0
 24 18  1  0
  1 33  1  0
  1 34  1  0
  1 35  1  0
  2 36  1  6
  3 37  1  0
  3 38  1  0
  4 39  1  0
  4 40  1  0
  5 41  1  6
  8 42  1  0
  8 43  1  0
  8 44  1  0
  9 45  1  0
  9 46  1  0
  9 47  1  0
 10 48  1  6
 11 49  1  0
 11 50  1  0
 12 51  1  0
 12 52  1  0
 14 53  1  0
 14 54  1  0
 14 55  1  0
 15 56  1  1
 16 57  1  0
 16 58  1  0
 17 59  1  0
 19 60  1  6
 20 61  1  0
 20 62  1  0
 21 63  1  0
 21 64  1  0
 22 65  1  6
 23 66  1  0
 25 67  1  0
 25 68  1  0
 25 69  1  0
 26 70  1  0
 26 71  1  0
 26 72  1  0
 28 73  1  0
 28 74  1  0
 28 75  1  0
 29 76  1  0
 29 77  1  0
 30 78  1  0
 30 79  1  0
 32 80  1  0
 32 81  1  0
 32 82  1  0
M  END
>  <meeko>  (7) 
{"is_sidechain": [false], "intermolecular_energy": 2.731, "internal_energy": -0.839}

$$$$
EPH_relaxed_0001_pdb2pqr_Repair_145_r2_0001_out
     RDKit          3D

 82 86  0  0  0  0  0  0  0  0999 V2000
   -2.6400    7.5980   -3.0520 C   0  0  0  0  0  0  0  0  0  0  0  0
   -2.9230    7.8560   -1.5700 C   0  0  2  0  0  0  0  0  0  0  0  0
   -4.4310    7.8180   -1.2510 C   0  0  0  0  0  0  0  0  0  0  0  0
   -5.1600    6.6210   -1.8660 C   0  0  0  0  0  0  0  0  0  0  0  0
   -6.3560    7.0500   -2.6610 C   0  0  2  0  0  0  0  0  0  0  0  0
   -6.9180    8.3090   -2.2670 O   0  0  0  0  0  0  0  0  0  0  0  0
   -7.7540    7.1560   -2.0790 C   0  0  0  0  0  0  0  0  0  0  0  0
   -8.0280    6.8300   -0.6450 C   0  0  0  0  0  0  0  0  0  0  0  0
   -8.9230    7.1010   -3.0120 C   0  0  0  0  0  0  0  0  0  0  0  0
   -2.3350    9.1990   -1.1550 C   0  0  1  0  0  0  0  0  0  0  0  0
   -2.8450    9.6720    0.2330 C   0  0  0  0  0  0  0  0  0  0  0  0
   -1.6690   10.4200    0.9110 C   0  0  0  0  0  0  0  0  0  0  0  0
   -0.6430   10.6440   -0.2240 C   0  0  1  0  0  0  0  0  0  0  0  0
   -1.1630   11.8980   -0.9940 C   0  0  0  0  0  0  0  0  0  0  0  0
    0.8480   10.8130    0.2150 C   0  0  2  0  0  0  0  0  0  0  0  0
    1.1310   12.0370    1.1040 C   0  0  0  0  0  0  0  0  0  0  0  0
    1.4980   13.2850    0.3730 C   0  0  0  0  0  0  0  0  0  0  0  0
    1.8740   13.3530   -0.9180 C   0  0  0  0  0  0  0  0  0  0  0  0
    2.0540   12.0800   -1.7550 C   0  0  1  0  0  0  0  0  0  0  0  0
    3.3890   12.1610   -2.5410 C   0  0  0  0  0  0  0  0  0  0  0  0
    3.4980   13.4310   -3.3800 C   0  0  0  0  0  0  0  0  0  0  0  0
    3.3720   14.6750   -2.5050 C   0  0  2  0  0  0  0  0  0  0  0  0
    4.5100   14.7470   -1.6400 O   0  0  0  0  0  0  0  0  0  0  0  0
    2.0690   14.7000   -1.6580 C   0  0  0  0  0  0  0  0  0  0  0  0
    0.8500   14.9260   -2.5850 C   0  0  0  0  0  0  0  0  0  0  0  0
    2.1340   15.9340   -0.7180 C   0  0  0  0  0  0  0  0  0  0  0  0
    1.8900   10.7070   -0.9710 C   0  0  1  0  0  0  0  0  0  0  0  0
    3.2510   10.2920   -0.3330 C   0  0  0  0  0  0  0  0  0  0  0  0
    1.5160    9.5720   -1.9960 C   0  0  0  0  0  0  0  0  0  0  0  0
    0.0180    9.3750   -2.2990 C   0  0  0  0  0  0  0  0  0  0  0  0
   -0.7960    9.2870   -1.0040 C   0  0  2  0  0  0  0  0  0  0  0  0
   -0.3100    8.0210   -0.2190 C   0  0  0  0  0  0  0  0  0  0  0  0
   -1.8302    6.8597   -3.1475 H   0  0  0  0  0  0  0  0  0  0  0  0
   -3.5483    7.2107   -3.5367 H   0  0  0  0  0  0  0  0  0  0  0  0
   -2.3381    8.5382   -3.5367 H   0  0  0  0  0  0  0  0  0  0  0  0
   -2.4451    7.0483   -0.9962 H   0  0  0  0  0  0  0  0  0  0  0  0
   -4.5539    7.7757   -0.1587 H   0  0  0  0  0  0  0  0  0  0  0  0
   -4.8751    8.7243   -1.6886 H   0  0  0  0  0  0  0  0  0  0  0  0
   -4.4660    6.0826   -2.5282 H   0  0  0  0  0  0  0  0  0  0  0  0
   -5.5064    5.9726   -1.0477 H   0  0  0  0  0  0  0  0  0  0  0  0
   -5.9666    6.5496   -3.5599 H   0  0  0  0  0  0  0  0  0  0  0  0
   -7.4555    7.5112    0.0017 H   0  0  0  0  0  0  0  0  0  0  0  0
   -9.1025    6.9474   -0.4411 H   0  0  0  0  0  0  0  0  0  0  0  0
   -7.7274    5.7917   -0.4411 H   0  0  0  0  0  0  0  0  0  0  0  0
   -9.8552    7.0571   -2.4296 H   0  0  0  0  0  0  0  0  0  0  0  0
   -8.9287    7.9999   -3.6460 H   0  0  0  0  0  0  0  0  0  0  0  0
   -8.8443    6.2056   -3.6460 H   0  0  0  0  0  0  0  0  0  0  0  0
   -2.6651    9.8138   -2.0053 H   0  0  0  0  0  0  0  0  0  0  0  0
   -3.7037   10.3484    0.1105 H   0  0  0  0  0  0  0  0  0  0  0  0
   -3.1749    8.8189    0.8440 H   0  0  0  0  0  0  0  0  0  0  0  0
   -2.0071   11.3817    1.3242 H   0  0  0  0  0  0  0  0  0  0  0  0
   -1.2435    9.8530    1.7521 H   0  0  0  0  0  0  0  0  0  0  0  0
   -1.4812   12.6652   -0.2728 H   0  0  0  0  0  0  0  0  0  0  0  0
   -0.3575   12.3003   -1.6259 H   0  0  0  0  0  0  0  0  0  0  0  0
   -2.0168   11.6123   -1.6259 H   0  0  0  0  0  0  0  0  0  0  0  0
    1.0057    9.9337    0.8568 H   0  0  0  0  0  0  0  0  0  0  0  0
    0.2271   12.2433    1.6960 H   0  0  0  0  0  0  0  0  0  0  0  0
    2.0072   11.7734    1.7146 H   0  0  0  0  0  0  0  0  0  0  0  0
    1.4580   14.2290    0.9363 H   0  0  0  0  0  0  0  0  0  0  0  0
    1.2084   12.0559   -2.4581 H   0  0  0  0  0  0  0  0  0  0  0  0
    4.2225   12.1398   -1.8235 H   0  0  0  0  0  0  0  0  0  0  0  0
    3.4244   11.3028   -3.2282 H   0  0  0  0  0  0  0  0  0  0  0  0
    4.4741   13.4448   -3.8871 H   0  0  0  0  0  0  0  0  0  0  0  0
    2.6816   13.4360   -4.1172 H   0  0  0  0  0  0  0  0  0  0  0  0
    3.3262   15.5461   -3.1751 H   0  0  0  0  0  0  0  0  0  0  0  0
    4.2080   15.0980   -0.7850 H   0  0  0  0  0  0  0  0  0  0  0  0
   -0.0494   15.0927   -1.9740 H   0  0  0  0  0  0  0  0  0  0  0  0
    1.0303   15.8060   -3.2199 H   0  0  0  0  0  0  0  0  0  0  0  0
    0.7029   14.0398   -3.2199 H   0  0  0  0  0  0  0  0  0  0  0  0
    2.1163   15.5984    0.3294 H   0  0  0  0  0  0  0  0  0  0  0  0
    3.0628   16.4917   -0.9087 H   0  0  0  0  0  0  0  0  0  0  0  0
    1.2690   16.5862   -0.9087 H   0  0  0  0  0  0  0  0  0  0  0  0
    3.1652   10.3182    0.7633 H   0  0  0  0  0  0  0  0  0  0  0  0
    3.5120    9.2734   -0.6561 H   0  0  0  0  0  0  0  0  0  0  0  0
    4.0359   10.9916   -0.6561 H   0  0  0  0  0  0  0  0  0  0  0  0
    2.0201    9.8024   -2.9461 H   0  0  0  0  0  0  0  0  0  0  0  0
    1.8385    8.6352   -1.5182 H   0  0  0  0  0  0  0  0  0  0  0  0
   -0.3438   10.2263   -2.8944 H   0  0  0  0  0  0  0  0  0  0  0  0
   -0.1066    8.4349   -2.8564 H   0  0  0  0  0  0  0  0  0  0  0  0
   -0.3825    8.2098    0.8622 H   0  0  0  0  0  0  0  0  0  0  0  0
   -0.9417    7.1603   -0.4841 H   0  0  0  0  0  0  0  0  0  0  0  0
    0.7353    7.8041   -0.4841 H   0  0  0  0  0  0  0  0  0  0  0  0
  1  2  1  0
  2  3  1  0
  3  4  1  0
  4  5  1  0
  5  6  1  0
  6  7  1  0
  7  8  1  0
  7  9  1  0
  2 10  1  0
 10 11  1  0
 11 12  1  0
 12 13  1  0
 13 14  1  6
 13 15  1  0
 15 16  1  0
 16 17  1  0
 17 18  2  0
 18 19  1  0
 19 20  1  0
 20 21  1  0
 21 22  1  0
 22 23  1  0
 22 24  1  0
 24 25  1  0
 24 26  1  0
 19 27  1  0
 27 28  1  1
 27 29  1  0
 29 30  1  0
 30 31  1  0
 31 32  1  1
  7  5  1  0
 31 10  1  0
 31 13  1  0
 27 15  1  0
 24 18  1  0
  1 33  1  0
  1 34  1  0
  1 35  1  0
  2 36  1  1
  3 37  1  0
  3 38  1  0
  4 39  1  0
  4 40  1  0
  5 41  1  6
  8 42  1  0
  8 43  1  0
  8 44  1  0
  9 45  1  0
  9 46  1  0
  9 47  1  0
 10 48  1  6
 11 49  1  0
 11 50  1  0
 12 51  1  0
 12 52  1  0
 14 53  1  0
 14 54  1  0
 14 55  1  0
 15 56  1  1
 16 57  1  0
 16 58  1  0
 17 59  1  0
 19 60  1  6
 20 61  1  0
 20 62  1  0
 21 63  1  0
 21 64  1  0
 22 65  1  6
 23 66  1  0
 25 67  1  0
 25 68  1  0
 25 69  1  0
 26 70  1  0
 26 71  1  0
 26 72  1  0
 28 73  1  0
 28 74  1  0
 28 75  1  0
 29 76  1  0
 29 77  1  0
 30 78  1  0
 30 79  1  0
 32 80  1  0
 32 81  1  0
 32 82  1  0
M  END
>  <meeko>  (8) 
{"is_sidechain": [false], "intermolecular_energy": 2.731, "internal_energy": -0.839}

$$$$
EPH_relaxed_0001_pdb2pqr_Repair_145_r2_0001_out
     RDKit          3D

 82 86  0  0  0  0  0  0  0  0999 V2000
    4.1180   18.1460    0.0120 C   0  0  0  0  0  0  0  0  0  0  0  0
    4.1380   16.9360   -0.9260 C   0  0  2  0  0  0  0  0  0  0  0  0
    4.2200   17.3520   -2.4090 C   0  0  0  0  0  0  0  0  0  0  0  0
    5.6520   17.4430   -2.9440 C   0  0  0  0  0  0  0  0  0  0  0  0
    5.9850   16.2840   -3.8340 C   0  0  2  0  0  0  0  0  0  0  0  0
    6.9880   15.4000   -3.3160 O   0  0  0  0  0  0  0  0  0  0  0  0
    7.3290   16.1130   -4.5160 C   0  0  0  0  0  0  0  0  0  0  0  0
    8.4280   17.1140   -4.3380 C   0  0  0  0  0  0  0  0  0  0  0  0
    7.4090   15.2430   -5.7320 C   0  0  0  0  0  0  0  0  0  0  0  0
    2.9000   16.0780   -0.6940 C   0  0  1  0  0  0  0  0  0  0  0  0
    1.6100   16.9250   -0.5200 C   0  0  0  0  0  0  0  0  0  0  0  0
    0.4540   16.1140   -1.1600 C   0  0  0  0  0  0  0  0  0  0  0  0
    1.0430   14.7010   -1.3810 C   0  0  1  0  0  0  0  0  0  0  0  0
    0.9330   14.0000    0.0090 C   0  0  0  0  0  0  0  0  0  0  0  0
    0.3840   13.8470   -2.5120 C   0  0  2  0  0  0  0  0  0  0  0  0
   -1.1010   13.5090   -2.2940 C   0  0  0  0  0  0  0  0  0  0  0  0
   -1.3650   12.2340   -1.5640 C   0  0  0  0  0  0  0  0  0  0  0  0
   -0.4660   11.2540   -1.3520 C   0  0  0  0  0  0  0  0  0  0  0  0
    0.9430   11.3340   -1.9540 C   0  0  1  0  0  0  0  0  0  0  0  0
    1.3060    9.9720   -2.6030 C   0  0  0  0  0  0  0  0  0  0  0  0
    1.1500    8.8030   -1.6360 C   0  0  0  0  0  0  0  0  0  0  0  0
   -0.2790    8.7220   -1.1040 C   0  0  2  0  0  0  0  0  0  0  0  0
   -1.1540    8.3830   -2.1840 O   0  0  0  0  0  0  0  0  0  0  0  0
   -0.7590   10.0410   -0.4360 C   0  0  0  0  0  0  0  0  0  0  0  0
   -0.0090   10.2490    0.9030 C   0  0  0  0  0  0  0  0  0  0  0  0
   -2.2590    9.8720   -0.0710 C   0  0  0  0  0  0  0  0  0  0  0  0
    1.2150   12.5640   -2.9220 C   0  0  1  0  0  0  0  0  0  0  0  0
    0.7840   12.2010   -4.3770 C   0  0  0  0  0  0  0  0  0  0  0  0
    2.7630   12.8450   -2.9750 C   0  0  0  0  0  0  0  0  0  0  0  0
    3.3340   13.7920   -1.9020 C   0  0  0  0  0  0  0  0  0  0  0  0
    2.5070   15.0780   -1.8100 C   0  0  2  0  0  0  0  0  0  0  0  0
    2.6170   15.8170   -3.1870 C   0  0  0  0  0  0  0  0  0  0  0  0
    4.1237   17.8005    1.0563 H   0  0  0  0  0  0  0  0  0  0  0  0
    5.0060   18.7682   -0.1732 H   0  0  0  0  0  0  0  0  0  0  0  0
    3.2099   18.7386   -0.1732 H   0  0  0  0  0  0  0  0  0  0  0  0
    5.0425   16.3539   -0.6957 H   0  0  0  0  0  0  0  0  0  0  0  0
    3.6716   16.6105   -3.0086 H   0  0  0  0  0  0  0  0  0  0  0  0
    3.7835   18.3588   -2.4853 H   0  0  0  0  0  0  0  0  0  0  0  0
    5.7599   18.3755   -3.5174 H   0  0  0  0  0  0  0  0  0  0  0  0
    6.3406   17.4262   -2.0864 H   0  0  0  0  0  0  0  0  0  0  0  0
    4.9541   16.2507   -4.2162 H   0  0  0  0  0  0  0  0  0  0  0  0
    8.6060   17.2761   -3.2647 H   0  0  0  0  0  0  0  0  0  0  0  0
    9.3475   16.7367   -4.8093 H   0  0  0  0  0  0  0  0  0  0  0  0
    8.1379   18.0647   -4.8093 H   0  0  0  0  0  0  0  0  0  0  0  0
    7.5057   14.1913   -5.4246 H   0  0  0  0  0  0  0  0  0  0  0  0
    6.4957   15.3671   -6.3323 H   0  0  0  0  0  0  0  0  0  0  0  0
    8.2844   15.5315   -6.3323 H   0  0  0  0  0  0  0  0  0  0  0  0
    3.2214   15.5311    0.2047 H   0  0  0  0  0  0  0  0  0  0  0  0
    1.4086   17.0937    0.5482 H   0  0  0  0  0  0  0  0  0  0  0  0
    1.7155   17.9092   -0.9999 H   0  0  0  0  0  0  0  0  0  0  0  0
   -0.4120   16.0720   -0.4830 H   0  0  0  0  0  0  0  0  0  0  0  0
    0.0954   16.5671   -2.0960 H   0  0  0  0  0  0  0  0  0  0  0  0
    1.0503   14.7478    0.8071 H   0  0  0  0  0  0  0  0  0  0  0  0
   -0.0517   13.5183    0.0998 H   0  0  0  0  0  0  0  0  0  0  0  0
    1.7228   13.2398    0.0998 H   0  0  0  0  0  0  0  0  0  0  0  0
    0.4102   14.5330   -3.3714 H   0  0  0  0  0  0  0  0  0  0  0  0
   -1.5555   14.3297   -1.7196 H   0  0  0  0  0  0  0  0  0  0  0  0
   -1.5338   13.3802   -3.2970 H   0  0  0  0  0  0  0  0  0  0  0  0
   -2.3791   12.0822   -1.1658 H   0  0  0  0  0  0  0  0  0  0  0  0
    1.6221   11.5399   -1.1135 H   0  0  0  0  0  0  0  0  0  0  0  0
    0.6453    9.8057   -3.4666 H   0  0  0  0  0  0  0  0  0  0  0  0
    2.3629   10.0171   -2.9044 H   0  0  0  0  0  0  0  0  0  0  0  0
    1.3925    7.8670   -2.1606 H   0  0  0  0  0  0  0  0  0  0  0  0
    1.8326    8.9560   -0.7871 H   0  0  0  0  0  0  0  0  0  0  0  0
   -0.2970    7.9495   -0.3211 H   0  0  0  0  0  0  0  0  0  0  0  0
   -2.0390    8.7190   -1.9620 H   0  0  0  0  0  0  0  0  0  0  0  0
   -0.6955   10.0586    1.7412 H   0  0  0  0  0  0  0  0  0  0  0  0
    0.8406    9.5526    0.9594 H   0  0  0  0  0  0  0  0  0  0  0  0
    0.3605   11.2835    0.9594 H   0  0  0  0  0  0  0  0  0  0  0  0
   -2.3709    9.8594    1.0232 H   0  0  0  0  0  0  0  0  0  0  0  0
   -2.8348   10.7110   -0.4888 H   0  0  0  0  0  0  0  0  0  0  0  0
   -2.6337    8.9260   -0.4888 H   0  0  0  0  0  0  0  0  0  0  0  0
   -0.0570   11.4927   -4.3444 H   0  0  0  0  0  0  0  0  0  0  0  0
    0.4740   13.1142   -4.9062 H   0  0  0  0  0  0  0  0  0  0  0  0
    1.6311   11.7402   -4.9062 H   0  0  0  0  0  0  0  0  0  0  0  0
    3.2802   11.8792   -2.8758 H   0  0  0  0  0  0  0  0  0  0  0  0
    2.9295   13.3607   -3.9323 H   0  0  0  0  0  0  0  0  0  0  0  0
    3.3174   13.2829   -0.9270 H   0  0  0  0  0  0  0  0  0  0  0  0
    4.3647   14.0568   -2.1804 H   0  0  0  0  0  0  0  0  0  0  0  0
    2.7770   16.8916   -3.0147 H   0  0  0  0  0  0  0  0  0  0  0  0
    3.4640   15.4069   -3.7566 H   0  0  0  0  0  0  0  0  0  0  0  0
    1.6873   15.6714   -3.7566 H   0  0  0  0  0  0  0  0  0  0  0  0
  1  2  1  0
  2  3  1  0
  3  4  1  0
  4  5  1  0
  5  6  1  0
  6  7  1  0
  7  8  1  0
  7  9  1  0
  2 10  1  0
 10 11  1  0
 11 12  1  0
 12 13  1  0
 13 14  1  1
 13 15  1  0
 15 16  1  0
 16 17  1  0
 17 18  2  0
 18 19  1  0
 19 20  1  0
 20 21  1  0
 21 22  1  0
 22 23  1  0
 22 24  1  0
 24 25  1  0
 24 26  1  0
 19 27  1  0
 27 28  1  6
 27 29  1  0
 29 30  1  0
 30 31  1  0
 31 32  1  6
  7  5  1  0
 31 10  1  0
 31 13  1  0
 27 15  1  0
 24 18  1  0
  1 33  1  0
  1 34  1  0
  1 35  1  0
  2 36  1  1
  3 37  1  0
  3 38  1  0
  4 39  1  0
  4 40  1  0
  5 41  1  6
  8 42  1  0
  8 43  1  0
  8 44  1  0
  9 45  1  0
  9 46  1  0
  9 47  1  0
 10 48  1  1
 11 49  1  0
 11 50  1  0
 12 51  1  0
 12 52  1  0
 14 53  1  0
 14 54  1  0
 14 55  1  0
 15 56  1  6
 16 57  1  0
 16 58  1  0
 17 59  1  0
 19 60  1  1
 20 61  1  0
 20 62  1  0
 21 63  1  0
 21 64  1  0
 22 65  1  1
 23 66  1  0
 25 67  1  0
 25 68  1  0
 25 69  1  0
 26 70  1  0
 26 71  1  0
 26 72  1  0
 28 73  1  0
 28 74  1  0
 28 75  1  0
 29 76  1  0
 29 77  1  0
 30 78  1  0
 30 79  1  0
 32 80  1  0
 32 81  1  0
 32 82  1  0
M  END
>  <meeko>  (9) 
{"is_sidechain": [false], "intermolecular_energy": 2.731, "internal_energy": -0.839}

$$$$
EPH_relaxed_0001_pdb2pqr_Repair_145_r2_0001_out
     RDKit          3D

 82 86  0  0  0  0  0  0  0  0999 V2000
    4.2990   17.5870   -2.6600 C   0  0  0  0  0  0  0  0  0  0  0  0
    2.9380   17.1000   -2.1550 C   0  0  2  0  0  0  0  0  0  0  0  0
    2.6860   17.5020   -0.6880 C   0  0  0  0  0  0  0  0  0  0  0  0
    3.7970   18.3680   -0.0870 C   0  0  0  0  0  0  0  0  0  0  0  0
    3.4630   18.8090    1.3060 C   0  0  2  0  0  0  0  0  0  0  0  0
    3.7820   20.1780    1.5920 O   0  0  0  0  0  0  0  0  0  0  0  0
    4.5110   19.1880    2.3360 C   0  0  0  0  0  0  0  0  0  0  0  0
    5.9720   19.1410    2.0170 C   0  0  0  0  0  0  0  0  0  0  0  0
    4.1410   19.1310    3.7860 C   0  0  0  0  0  0  0  0  0  0  0  0
    2.8400   15.5860   -2.3040 C   0  0  1  0  0  0  0  0  0  0  0  0
    4.2210   14.9170   -2.5330 C   0  0  0  0  0  0  0  0  0  0  0  0
    4.1760   13.5420   -1.8170 C   0  0  0  0  0  0  0  0  0  0  0  0
    2.6810   13.3220   -1.4890 C   0  0  1  0  0  0  0  0  0  0  0  0
    2.0530   12.7930   -2.8160 C   0  0  0  0  0  0  0  0  0  0  0  0
    2.3700   12.3740   -0.2850 C   0  0  2  0  0  0  0  0  0  0  0  0
    2.8440   10.9210   -0.4600 C   0  0  0  0  0  0  0  0  0  0  0  0
    1.8500    9.9960   -1.0810 C   0  0  0  0  0  0  0  0  0  0  0  0
    0.5340   10.2430   -1.2220 C   0  0  0  0  0  0  0  0  0  0  0  0
   -0.0950   11.5170   -0.6440 C   0  0  1  0  0  0  0  0  0  0  0  0
   -1.4010   11.1530    0.1100 C   0  0  0  0  0  0  0  0  0  0  0  0
   -2.3760   10.3630   -0.7570 C   0  0  0  0  0  0  0  0  0  0  0  0
   -1.7340    9.0750   -1.2660 C   0  0  2  0  0  0  0  0  0  0  0  0
   -1.4960    8.2080   -0.1530 O   0  0  0  0  0  0  0  0  0  0  0  0
   -0.4040    9.3160   -2.0340 C   0  0  0  0  0  0  0  0  0  0  0  0
   -0.7030    9.9960   -3.3930 C   0  0  0  0  0  0  0  0  0  0  0  0
    0.2120    7.9310   -2.3690 C   0  0  0  0  0  0  0  0  0  0  0  0
    0.8720   12.4370    0.2200 C   0  0  1  0  0  0  0  0  0  0  0  0
    0.8810   11.9560    1.7030 C   0  0  0  0  0  0  0  0  0  0  0  0
    0.3060   13.9070    0.2330 C   0  0  0  0  0  0  0  0  0  0  0  0
    0.7450   14.8310   -0.9190 C   0  0  0  0  0  0  0  0  0  0  0  0
    2.2650   14.7890   -1.1060 C   0  0  2  0  0  0  0  0  0  0  0  0
    2.9240   15.3370    0.2050 C   0  0  0  0  0  0  0  0  0  0  0  0
    4.9470   17.8189   -1.8019 H   0  0  0  0  0  0  0  0  0  0  0  0
    4.7665   16.8004   -3.2705 H   0  0  0  0  0  0  0  0  0  0  0  0
    4.1613   18.4916   -3.2705 H   0  0  0  0  0  0  0  0  0  0  0  0
    2.1642   17.5850   -2.7682 H   0  0  0  0  0  0  0  0  0  0  0  0
    1.7423   18.0651   -0.6395 H   0  0  0  0  0  0  0  0  0  0  0  0
    2.6508   16.5720   -0.1015 H   0  0  0  0  0  0  0  0  0  0  0  0
    4.7296   17.7852   -0.0626 H   0  0  0  0  0  0  0  0  0  0  0  0
    3.9095   19.2652   -0.7133 H   0  0  0  0  0  0  0  0  0  0  0  0
    2.6050   18.1217    1.3447 H   0  0  0  0  0  0  0  0  0  0  0  0
    6.5511   19.1224    2.9521 H   0  0  0  0  0  0  0  0  0  0  0  0
    6.1907   18.2354    1.4322 H   0  0  0  0  0  0  0  0  0  0  0  0
    6.2484   20.0307    1.4322 H   0  0  0  0  0  0  0  0  0  0  0  0
    5.0429   19.2699    4.4003 H   0  0  0  0  0  0  0  0  0  0  0  0
    3.4174   19.9283    4.0114 H   0  0  0  0  0  0  0  0  0  0  0  0
    3.6909   18.1529    4.0114 H   0  0  0  0  0  0  0  0  0  0  0  0
    2.1504   15.5297   -3.1591 H   0  0  0  0  0  0  0  0  0  0  0  0
    4.4008   14.7780   -3.6093 H   0  0  0  0  0  0  0  0  0  0  0  0
    5.0338   15.5428   -2.1359 H   0  0  0  0  0  0  0  0  0  0  0  0
    4.5494   12.7469   -2.4791 H   0  0  0  0  0  0  0  0  0  0  0  0
    4.8083   13.5193   -0.9172 H   0  0  0  0  0  0  0  0  0  0  0  0
    1.2309   12.1005   -2.5821 H   0  0  0  0  0  0  0  0  0  0  0  0
    1.6641   13.6397   -3.4007 H   0  0  0  0  0  0  0  0  0  0  0  0
    2.8213   12.2659   -3.4007 H   0  0  0  0  0  0  0  0  0  0  0  0
    2.9940   12.7974    0.5159 H   0  0  0  0  0  0  0  0  0  0  0  0
    3.7422   10.9307   -1.0950 H   0  0  0  0  0  0  0  0  0  0  0  0
    3.0255   10.5360    0.5543 H   0  0  0  0  0  0  0  0  0  0  0  0
    2.2244    9.0316   -1.4548 H   0  0  0  0  0  0  0  0  0  0  0  0
   -0.3280   12.1596   -1.5059 H   0  0  0  0  0  0  0  0  0  0  0  0
   -1.1424   10.5475    0.9912 H   0  0  0  0  0  0  0  0  0  0  0  0
   -1.8948   12.0935    0.3958 H   0  0  0  0  0  0  0  0  0  0  0  0
   -3.2650   10.1106   -0.1604 H   0  0  0  0  0  0  0  0  0  0  0  0
   -2.6562   10.9813   -1.6226 H   0  0  0  0  0  0  0  0  0  0  0  0
   -2.4324    8.6188   -1.9830 H   0  0  0  0  0  0  0  0  0  0  0  0
   -1.1300    8.7470    0.5680 H   0  0  0  0  0  0  0  0  0  0  0  0
   -1.1401   10.9900   -3.2173 H   0  0  0  0  0  0  0  0  0  0  0  0
    0.2315   10.1020   -3.9635 H   0  0  0  0  0  0  0  0  0  0  0  0
   -1.4128    9.3790   -3.9635 H   0  0  0  0  0  0  0  0  0  0  0  0
    0.4484    7.3994   -1.4355 H   0  0  0  0  0  0  0  0  0  0  0  0
   -0.5086    7.3411   -2.9545 H   0  0  0  0  0  0  0  0  0  0  0  0
    1.1327    8.0711   -2.9545 H   0  0  0  0  0  0  0  0  0  0  0  0
    0.8647   12.8292    2.3718 H   0  0  0  0  0  0  0  0  0  0  0  0
   -0.0056   11.3329    1.8918 H   0  0  0  0  0  0  0  0  0  0  0  0
    1.7903   11.3665    1.8918 H   0  0  0  0  0  0  0  0  0  0  0  0
   -0.7917   13.8411    0.2068 H   0  0  0  0  0  0  0  0  0  0  0  0
    0.7189   14.3662    1.1433 H   0  0  0  0  0  0  0  0  0  0  0  0
    0.2587   14.5024   -1.8493 H   0  0  0  0  0  0  0  0  0  0  0  0
    0.4499   15.8619   -0.6740 H   0  0  0  0  0  0  0  0  0  0  0  0
    2.4108   14.9103    1.0794 H   0  0  0  0  0  0  0  0  0  0  0  0
    3.9862   15.0522    0.2282 H   0  0  0  0  0  0  0  0  0  0  0  0
    2.8377   16.4334    0.2282 H   0  0  0  0  0  0  0  0  0  0  0  0
  1  2  1  0
  2  3  1  0
  3  4  1  0
  4  5  1  0
  5  6  1  0
  6  7  1  0
  7  8  1  0
  7  9  1  0
  2 10  1  0
 10 11  1  0
 11 12  1  0
 12 13  1  0
 13 14  1  6
 13 15  1  0
 15 16  1  0
 16 17  1  0
 17 18  2  0
 18 19  1  0
 19 20  1  0
 20 21  1  0
 21 22  1  0
 22 23  1  0
 22 24  1  0
 24 25  1  0
 24 26  1  0
 19 27  1  0
 27 28  1  1
 27 29  1  0
 29 30  1  0
 30 31  1  0
 31 32  1  1
  7  5  1  0
 31 10  1  0
 31 13  1  0
 27 15  1  0
 24 18  1  0
  1 33  1  0
  1 34  1  0
  1 35  1  0
  2 36  1  6
  3 37  1  0
  3 38  1  0
  4 39  1  0
  4 40  1  0
  5 41  1  1
  8 42  1  0
  8 43  1  0
  8 44  1  0
  9 45  1  0
  9 46  1  0
  9 47  1  0
 10 48  1  6
 11 49  1  0
 11 50  1  0
 12 51  1  0
 12 52  1  0
 14 53  1  0
 14 54  1  0
 14 55  1  0
 15 56  1  1
 16 57  1  0
 16 58  1  0
 17 59  1  0
 19 60  1  6
 20 61  1  0
 20 62  1  0
 21 63  1  0
 21 64  1  0
 22 65  1  6
 23 66  1  0
 25 67  1  0
 25 68  1  0
 25 69  1  0
 26 70  1  0
 26 71  1  0
 26 72  1  0
 28 73  1  0
 28 74  1  0
 28 75  1  0
 29 76  1  0
 29 77  1  0
 30 78  1  0
 30 79  1  0
 32 80  1  0
 32 81  1  0
 32 82  1  0
M  END
>  <meeko>  (10) 
{"is_sidechain": [false], "intermolecular_energy": 2.731, "internal_energy": -0.839}

$$$$
EPH_relaxed_0001_pdb2pqr_Repair_145_r2_0001_out
     RDKit          3D

 82 86  0  0  0  0  0  0  0  0999 V2000
    0.5040   17.7540   -0.1870 C   0  0  0  0  0  0  0  0  0  0  0  0
    1.3920   17.0520   -1.2180 C   0  0  2  0  0  0  0  0  0  0  0  0
    1.7450   17.9730   -2.4030 C   0  0  0  0  0  0  0  0  0  0  0  0
    3.2460   18.2370   -2.5510 C   0  0  0  0  0  0  0  0  0  0  0  0
    4.0520   16.9930   -2.3310 C   0  0  2  0  0  0  0  0  0  0  0  0
    5.1950   17.1630   -1.4830 O   0  0  0  0  0  0  0  0  0  0  0  0
    5.4670   16.8110   -2.8490 C   0  0  0  0  0  0  0  0  0  0  0  0
    6.1570   17.8860   -3.6290 C   0  0  0  0  0  0  0  0  0  0  0  0
    5.9920   15.4200   -3.0200 C   0  0  0  0  0  0  0  0  0  0  0  0
    0.7020   15.7910   -1.7250 C   0  0  1  0  0  0  0  0  0  0  0  0
    0.2730   15.9020   -3.2130 C   0  0  0  0  0  0  0  0  0  0  0  0
    0.4400   14.4910   -3.8330 C   0  0  0  0  0  0  0  0  0  0  0  0
    0.6370   13.5520   -2.6190 C   0  0  1  0  0  0  0  0  0  0  0  0
   -0.8040   13.2830   -2.0820 C   0  0  0  0  0  0  0  0  0  0  0  0
    1.4090   12.2210   -2.8930 C   0  0  2  0  0  0  0  0  0  0  0  0
    0.7280   11.2650   -3.8890 C   0  0  0  0  0  0  0  0  0  0  0  0
   -0.2050   10.2710   -3.2820 C   0  0  0  0  0  0  0  0  0  0  0  0
   -0.2730    9.9590   -1.9740 C   0  0  0  0  0  0  0  0  0  0  0  0
    0.7160   10.5610   -0.9680 C   0  0  1  0  0  0  0  0  0  0  0  0
    1.2610    9.4410   -0.0430 C   0  0  0  0  0  0  0  0  0  0  0  0
    0.1470    8.6500    0.6360 C   0  0  0  0  0  0  0  0  0  0  0  0
   -0.7820    8.0180   -0.3980 C   0  0  2  0  0  0  0  0  0  0  0  0
   -0.0550    7.0200   -1.1220 O   0  0  0  0  0  0  0  0  0  0  0  0
   -1.3840    9.0500   -1.3920 C   0  0  0  0  0  0  0  0  0  0  0  0
   -2.4090    9.9460   -0.6550 C   0  0  0  0  0  0  0  0  0  0  0  0
   -2.1860    8.2660   -2.4660 C   0  0  0  0  0  0  0  0  0  0  0  0
    1.8730   11.4590   -1.5860 C   0  0  1  0  0  0  0  0  0  0  0  0
    3.0800   10.5620   -1.9980 C   0  0  0  0  0  0  0  0  0  0  0  0
    2.4070   12.4420   -0.4790 C   0  0  0  0  0  0  0  0  0  0  0  0
    1.6780   13.7920   -0.3370 C   0  0  0  0  0  0  0  0  0  0  0  0
    1.5170   14.4740   -1.6990 C   0  0  2  0  0  0  0  0  0  0  0  0
    2.9510   14.7770   -2.2540 C   0  0  0  0  0  0  0  0  0  0  0  0
    0.8392   17.4890    0.8266 H   0  0  0  0  0  0  0  0  0  0  0  0
    0.5744   18.8432   -0.3235 H   0  0  0  0  0  0  0  0  0  0  0  0
   -0.5396   17.4341   -0.3235 H   0  0  0  0  0  0  0  0  0  0  0  0
    2.3338   16.7842   -0.7166 H   0  0  0  0  0  0  0  0  0  0  0  0
    1.3821   17.5025   -3.3287 H   0  0  0  0  0  0  0  0  0  0  0  0
    1.2652   18.9438   -2.2099 H   0  0  0  0  0  0  0  0  0  0  0  0
    3.4432   18.6148   -3.5651 H   0  0  0  0  0  0  0  0  0  0  0  0
    3.5408   18.9754   -1.7909 H   0  0  0  0  0  0  0  0  0  0  0  0
    3.1512   16.3666   -2.4092 H   0  0  0  0  0  0  0  0  0  0  0  0
    6.6180   18.6042   -2.9350 H   0  0  0  0  0  0  0  0  0  0  0  0
    6.9359   17.4368   -4.2626 H   0  0  0  0  0  0  0  0  0  0  0  0
    5.4242   18.4071   -4.2626 H   0  0  0  0  0  0  0  0  0  0  0  0
    6.1625   14.9683   -2.0316 H   0  0  0  0  0  0  0  0  0  0  0  0
    5.2594   14.8175   -3.5770 H   0  0  0  0  0  0  0  0  0  0  0  0
    6.9400   15.4518   -3.5770 H   0  0  0  0  0  0  0  0  0  0  0  0
   -0.1280   15.7336   -1.0055 H   0  0  0  0  0  0  0  0  0  0  0  0
   -0.7765   16.2241   -3.2816 H   0  0  0  0  0  0  0  0  0  0  0  0
    0.8863   16.6430   -3.7467 H   0  0  0  0  0  0  0  0  0  0  0  0
   -0.4582   14.2078   -4.4013 H   0  0  0  0  0  0  0  0  0  0  0  0
    1.2823   14.4425   -4.5388 H   0  0  0  0  0  0  0  0  0  0  0  0
   -0.7918   13.2853   -0.9821 H   0  0  0  0  0  0  0  0  0  0  0  0
   -1.4826   14.0700   -2.4428 H   0  0  0  0  0  0  0  0  0  0  0  0
   -1.1530   12.3042   -2.4428 H   0  0  0  0  0  0  0  0  0  0  0  0
    2.3207   12.5767   -3.3952 H   0  0  0  0  0  0  0  0  0  0  0  0
    0.1575   11.8723   -4.6072 H   0  0  0  0  0  0  0  0  0  0  0  0
    1.5370   10.6803   -4.3513 H   0  0  0  0  0  0  0  0  0  0  0  0
   -0.8956    9.7490   -3.9606 H   0  0  0  0  0  0  0  0  0  0  0  0
    0.1416   11.2878   -0.3749 H   0  0  0  0  0  0  0  0  0  0  0  0
    1.8675    8.7494   -0.6462 H   0  0  0  0  0  0  0  0  0  0  0  0
    1.8589    9.9207    0.7460 H   0  0  0  0  0  0  0  0  0  0  0  0
    0.5935    7.8555    1.2520 H   0  0  0  0  0  0  0  0  0  0  0  0
   -0.4406    9.3377    1.2620 H   0  0  0  0  0  0  0  0  0  0  0  0
   -1.6293    7.5755    0.1463 H   0  0  0  0  0  0  0  0  0  0  0  0
    0.3450    7.4510   -1.8960 H   0  0  0  0  0  0  0  0  0  0  0  0
   -2.2800    9.8333    0.4316 H   0  0  0  0  0  0  0  0  0  0  0  0
   -2.2465   10.9969   -0.9365 H   0  0  0  0  0  0  0  0  0  0  0  0
   -3.4287    9.6445   -0.9365 H   0  0  0  0  0  0  0  0  0  0  0  0
   -2.8883    7.5795   -1.9706 H   0  0  0  0  0  0  0  0  0  0  0  0
   -2.7467    8.9738   -3.0941 H   0  0  0  0  0  0  0  0  0  0  0  0
   -1.4911    7.6893   -3.0941 H   0  0  0  0  0  0  0  0  0  0  0  0
    3.5838   10.1876   -1.0947 H   0  0  0  0  0  0  0  0  0  0  0  0
    2.7181    9.7119   -2.5950 H   0  0  0  0  0  0  0  0  0  0  0  0
    3.7896   11.1537   -2.5950 H   0  0  0  0  0  0  0  0  0  0  0  0
    2.3372   11.9230    0.4883 H   0  0  0  0  0  0  0  0  0  0  0  0
    3.4296   12.6992   -0.7921 H   0  0  0  0  0  0  0  0  0  0  0  0
    0.6829   13.6195    0.0989 H   0  0  0  0  0  0  0  0  0  0  0  0
    2.2756   14.4465    0.3145 H   0  0  0  0  0  0  0  0  0  0  0  0
    3.6458   14.9238   -1.4140 H   0  0  0  0  0  0  0  0  0  0  0  0
    3.2925   13.9312   -2.8688 H   0  0  0  0  0  0  0  0  0  0  0  0
    2.9212   15.6887   -2.8688 H   0  0  0  0  0  0  0  0  0  0  0  0
  1  2  1  0
  2  3  1  0
  3  4  1  0
  4  5  1  0
  5  6  1  0
  6  7  1  0
  7  8  1  0
  7  9  1  0
  2 10  1  0
 10 11  1  0
 11 12  1  0
 12 13  1  0
 13 14  1  1
 13 15  1  0
 15 16  1  0
 16 17  1  0
 17 18  2  0
 18 19  1  0
 19 20  1  0
 20 21  1  0
 21 22  1  0
 22 23  1  0
 22 24  1  0
 24 25  1  0
 24 26  1  0
 19 27  1  0
 27 28  1  6
 27 29  1  0
 29 30  1  0
 30 31  1  0
 31 32  1  6
  7  5  1  0
 31 10  1  0
 31 13  1  0
 27 15  1  0
 24 18  1  0
  1 33  1  0
  1 34  1  0
  1 35  1  0
  2 36  1  1
  3 37  1  0
  3 38  1  0
  4 39  1  0
  4 40  1  0
  5 41  1  1
  8 42  1  0
  8 43  1  0
  8 44  1  0
  9 45  1  0
  9 46  1  0
  9 47  1  0
 10 48  1  1
 11 49  1  0
 11 50  1  0
 12 51  1  0
 12 52  1  0
 14 53  1  0
 14 54  1  0
 14 55  1  0
 15 56  1  6
 16 57  1  0
 16 58  1  0
 17 59  1  0
 19 60  1  1
 20 61  1  0
 20 62  1  0
 21 63  1  0
 21 64  1  0
 22 65  1  1
 23 66  1  0
 25 67  1  0
 25 68  1  0
 25 69  1  0
 26 70  1  0
 26 71  1  0
 26 72  1  0
 28 73  1  0
 28 74  1  0
 28 75  1  0
 29 76  1  0
 29 77  1  0
 30 78  1  0
 30 79  1  0
 32 80  1  0
 32 81  1  0
 32 82  1  0
M  END
>  <meeko>  (11) 
{"is_sidechain": [false], "intermolecular_energy": 2.731, "internal_energy": -0.839}

$$$$
EPH_relaxed_0001_pdb2pqr_Repair_145_r2_0001_out
     RDKit          3D

 82 86  0  0  0  0  0  0  0  0999 V2000
   -5.2690    5.7430   -1.7010 C   0  0  0  0  0  0  0  0  0  0  0  0
   -5.5070    7.2450   -1.8750 C   0  0  2  0  0  0  0  0  0  0  0  0
   -5.2120    8.0330   -0.5820 C   0  0  0  0  0  0  0  0  0  0  0  0
   -4.2290    9.1900   -0.7760 C   0  0  0  0  0  0  0  0  0  0  0  0
   -2.8550    8.8380   -0.2910 C   0  0  2  0  0  0  0  0  0  0  0  0
   -2.3610    9.6740    0.7640 O   0  0  0  0  0  0  0  0  0  0  0  0
   -1.6460    9.7350   -0.4810 C   0  0  0  0  0  0  0  0  0  0  0  0
   -1.7540   11.0530   -1.1810 C   0  0  0  0  0  0  0  0  0  0  0  0
   -0.2830    9.1190   -0.4240 C   0  0  0  0  0  0  0  0  0  0  0  0
   -6.9420    7.4970   -2.3220 C   0  0  1  0  0  0  0  0  0  0  0  0
   -7.2750    6.8100   -3.6730 C   0  0  0  0  0  0  0  0  0  0  0  0
   -8.7570    6.3610   -3.5930 C   0  0  0  0  0  0  0  0  0  0  0  0
   -9.3180    7.0890   -2.3490 C   0  0  1  0  0  0  0  0  0  0  0  0
   -9.6510    8.5320   -2.8450 C   0  0  0  0  0  0  0  0  0  0  0  0
  -10.5480    6.4200   -1.6540 C   0  0  2  0  0  0  0  0  0  0  0  0
  -11.8140    6.3180   -2.5230 C   0  0  0  0  0  0  0  0  0  0  0  0
  -12.7480    7.4790   -2.4290 C   0  0  0  0  0  0  0  0  0  0  0  0
  -12.7250    8.4250   -1.4720 C   0  0  0  0  0  0  0  0  0  0  0  0
  -11.7490    8.3300   -0.2930 C   0  0  1  0  0  0  0  0  0  0  0  0
  -12.5060    8.6190    1.0300 C   0  0  0  0  0  0  0  0  0  0  0  0
  -13.2540    9.9480    0.9980 C   0  0  0  0  0  0  0  0  0  0  0  0
  -14.2560    9.9820   -0.1530 C   0  0  2  0  0  0  0  0  0  0  0  0
  -15.2870    9.0240    0.1040 O   0  0  0  0  0  0  0  0  0  0  0  0
  -13.6090    9.6950   -1.5370 C   0  0  0  0  0  0  0  0  0  0  0  0
  -12.7150   10.8900   -1.9520 C   0  0  0  0  0  0  0  0  0  0  0  0
  -14.7480    9.6190   -2.5900 C   0  0  0  0  0  0  0  0  0  0  0  0
  -10.8780    7.0030   -0.2200 C   0  0  1  0  0  0  0  0  0  0  0  0
  -11.6630    5.8920    0.5430 C   0  0  0  0  0  0  0  0  0  0  0  0
   -9.5790    7.2860    0.6240 C   0  0  0  0  0  0  0  0  0  0  0  0
   -8.3590    7.8340   -0.1420 C   0  0  0  0  0  0  0  0  0  0  0  0
   -8.0750    6.9960   -1.3920 C   0  0  2  0  0  0  0  0  0  0  0  0
   -7.7160    5.5450   -0.9230 C   0  0  0  0  0  0  0  0  0  0  0  0
   -5.2304    5.4996   -0.6290 H   0  0  0  0  0  0  0  0  0  0  0  0
   -6.0898    5.1844   -2.1745 H   0  0  0  0  0  0  0  0  0  0  0  0
   -4.3157    5.4655   -2.1745 H   0  0  0  0  0  0  0  0  0  0  0  0
   -4.8097    7.6026   -2.6469 H   0  0  0  0  0  0  0  0  0  0  0  0
   -6.1593    8.4426   -0.2014 H   0  0  0  0  0  0  0  0  0  0  0  0
   -4.7448    7.3297    0.1230 H   0  0  0  0  0  0  0  0  0  0  0  0
   -4.1766    9.4374   -1.8465 H   0  0  0  0  0  0  0  0  0  0  0  0
   -4.5899   10.0482   -0.1901 H   0  0  0  0  0  0  0  0  0  0  0  0
   -3.0248    7.7731   -0.5079 H   0  0  0  0  0  0  0  0  0  0  0  0
   -1.8201   11.8595   -0.4359 H   0  0  0  0  0  0  0  0  0  0  0  0
   -0.8655   11.2076   -1.8108 H   0  0  0  0  0  0  0  0  0  0  0  0
   -2.6558   11.0609   -1.8108 H   0  0  0  0  0  0  0  0  0  0  0  0
    0.0149    8.9844    0.6263 H   0  0  0  0  0  0  0  0  0  0  0  0
   -0.3010    8.1415   -0.9282 H   0  0  0  0  0  0  0  0  0  0  0  0
    0.4388    9.7784   -0.9282 H   0  0  0  0  0  0  0  0  0  0  0  0
   -6.9368    8.5967   -2.3492 H   0  0  0  0  0  0  0  0  0  0  0  0
   -7.1383    7.5194   -4.5025 H   0  0  0  0  0  0  0  0  0  0  0  0
   -6.6114    5.9516   -3.8538 H   0  0  0  0  0  0  0  0  0  0  0  0
   -9.3036    6.6623   -4.4988 H   0  0  0  0  0  0  0  0  0  0  0  0
   -8.8586    5.2683   -3.5183 H   0  0  0  0  0  0  0  0  0  0  0  0
   -9.8032    9.1917   -1.9780 H   0  0  0  0  0  0  0  0  0  0  0  0
   -8.8170    8.9123   -3.4531 H   0  0  0  0  0  0  0  0  0  0  0  0
  -10.5673    8.5084   -3.4531 H   0  0  0  0  0  0  0  0  0  0  0  0
  -10.2021    5.3861   -1.5077 H   0  0  0  0  0  0  0  0  0  0  0  0
  -11.4989    6.2195   -3.5723 H   0  0  0  0  0  0  0  0  0  0  0  0
  -12.3718    5.4478   -2.1467 H   0  0  0  0  0  0  0  0  0  0  0  0
  -13.5199    7.5687   -3.2075 H   0  0  0  0  0  0  0  0  0  0  0  0
  -10.9878    9.1053   -0.4646 H   0  0  0  0  0  0  0  0  0  0  0  0
  -13.2310    7.8105    1.2052 H   0  0  0  0  0  0  0  0  0  0  0  0
  -11.7596    8.6754    1.8361 H   0  0  0  0  0  0  0  0  0  0  0  0
  -13.7923   10.0812    1.9480 H   0  0  0  0  0  0  0  0  0  0  0  0
  -12.5244   10.7583    0.8526 H   0  0  0  0  0  0  0  0  0  0  0  0
  -14.6655   11.0017   -0.2034 H   0  0  0  0  0  0  0  0  0  0  0  0
  -15.9770    9.4680    0.6260 H   0  0  0  0  0  0  0  0  0  0  0  0
  -12.3369   11.3953   -1.0511 H   0  0  0  0  0  0  0  0  0  0  0  0
  -11.8674   10.5236   -2.5498 H   0  0  0  0  0  0  0  0  0  0  0  0
  -13.3058   11.5996   -2.5498 H   0  0  0  0  0  0  0  0  0  0  0  0
  -15.7185    9.5542   -2.0763 H   0  0  0  0  0  0  0  0  0  0  0  0
  -14.7259   10.5206   -3.2198 H   0  0  0  0  0  0  0  0  0  0  0  0
  -14.6063    8.7283   -3.2198 H   0  0  0  0  0  0  0  0  0  0  0  0
  -11.5548    6.0452    1.6269 H   0  0  0  0  0  0  0  0  0  0  0  0
  -12.7274    5.9419    0.2701 H   0  0  0  0  0  0  0  0  0  0  0  0
  -11.2604    4.9054    0.2701 H   0  0  0  0  0  0  0  0  0  0  0  0
   -9.8404    8.0187    1.4017 H   0  0  0  0  0  0  0  0  0  0  0  0
   -9.2628    6.3035    1.0044 H   0  0  0  0  0  0  0  0  0  0  0  0
   -8.5600    8.8727   -0.4431 H   0  0  0  0  0  0  0  0  0  0  0  0
   -7.4805    7.7877    0.5184 H   0  0  0  0  0  0  0  0  0  0  0  0
   -7.7065    5.5068    0.1763 H   0  0  0  0  0  0  0  0  0  0  0  0
   -8.4665    4.8390   -1.3080 H   0  0  0  0  0  0  0  0  0  0  0  0
   -6.7228    5.2704   -1.3080 H   0  0  0  0  0  0  0  0  0  0  0  0
  1  2  1  0
  2  3  1  0
  3  4  1  0
  4  5  1  0
  5  6  1  0
  6  7  1  0
  7  8  1  0
  7  9  1  0
  2 10  1  0
 10 11  1  0
 11 12  1  0
 12 13  1  0
 13 14  1  6
 13 15  1  0
 15 16  1  0
 16 17  1  0
 17 18  2  0
 18 19  1  0
 19 20  1  0
 20 21  1  0
 21 22  1  0
 22 23  1  0
 22 24  1  0
 24 25  1  0
 24 26  1  0
 19 27  1  0
 27 28  1  1
 27 29  1  0
 29 30  1  0
 30 31  1  0
 31 32  1  1
  7  5  1  0
 31 10  1  0
 31 13  1  0
 27 15  1  0
 24 18  1  0
  1 33  1  0
  1 34  1  0
  1 35  1  0
  2 36  1  6
  3 37  1  0
  3 38  1  0
  4 39  1  0
  4 40  1  0
  5 41  1  1
  8 42  1  0
  8 43  1  0
  8 44  1  0
  9 45  1  0
  9 46  1  0
  9 47  1  0
 10 48  1  6
 11 49  1  0
 11 50  1  0
 12 51  1  0
 12 52  1  0
 14 53  1  0
 14 54  1  0
 14 55  1  0
 15 56  1  1
 16 57  1  0
 16 58  1  0
 17 59  1  0
 19 60  1  6
 20 61  1  0
 20 62  1  0
 21 63  1  0
 21 64  1  0
 22 65  1  6
 23 66  1  0
 25 67  1  0
 25 68  1  0
 25 69  1  0
 26 70  1  0
 26 71  1  0
 26 72  1  0
 28 73  1  0
 28 74  1  0
 28 75  1  0
 29 76  1  0
 29 77  1  0
 30 78  1  0
 30 79  1  0
 32 80  1  0
 32 81  1  0
 32 82  1  0
M  END
>  <meeko>  (12) 
{"is_sidechain": [false], "intermolecular_energy": 2.731, "internal_energy": -0.839}

$$$$
EPH_relaxed_0001_pdb2pqr_Repair_145_r2_0001_out
     RDKit          3D

 82 86  0  0  0  0  0  0  0  0999 V2000
    0.9500    8.7010   -0.3180 C   0  0  0  0  0  0  0  0  0  0  0  0
   -0.1140    9.4680   -1.1090 C   0  0  2  0  0  0  0  0  0  0  0  0
   -0.8280    8.5720   -2.1410 C   0  0  0  0  0  0  0  0  0  0  0  0
   -2.3220    8.3870   -1.8660 C   0  0  0  0  0  0  0  0  0  0  0  0
   -2.8860    7.2260   -2.6290 C   0  0  2  0  0  0  0  0  0  0  0  0
   -3.9160    7.5680   -3.5660 O   0  0  0  0  0  0  0  0  0  0  0  0
   -4.3110    6.7310   -2.4670 C   0  0  0  0  0  0  0  0  0  0  0  0
   -5.2610    7.3870   -1.5140 C   0  0  0  0  0  0  0  0  0  0  0  0
   -4.6300    5.3240   -2.8650 C   0  0  0  0  0  0  0  0  0  0  0  0
    0.5190   10.6660   -1.8070 C   0  0  1  0  0  0  0  0  0  0  0  0
    0.1720   10.7280   -3.3180 C   0  0  0  0  0  0  0  0  0  0  0  0
    0.0500   12.2290   -3.6870 C   0  0  0  0  0  0  0  0  0  0  0  0
    0.6500   12.9790   -2.4750 C   0  0  1  0  0  0  0  0  0  0  0  0
    2.1950   12.9220   -2.6920 C   0  0  0  0  0  0  0  0  0  0  0  0
    0.1520   14.4440   -2.2540 C   0  0  2  0  0  0  0  0  0  0  0  0
    0.4840   15.4250   -3.3920 C   0  0  0  0  0  0  0  0  0  0  0  0
    1.7850   16.1450   -3.2550 C   0  0  0  0  0  0  0  0  0  0  0  0
    2.5180   16.2270   -2.1290 C   0  0  0  0  0  0  0  0  0  0  0  0
    2.0040   15.6380   -0.8090 C   0  0  1  0  0  0  0  0  0  0  0  0
    2.2110   16.6670    0.3320 C   0  0  0  0  0  0  0  0  0  0  0  0
    3.6560   17.1490    0.4320 C   0  0  0  0  0  0  0  0  0  0  0  0
    4.1110   17.7800   -0.8810 C   0  0  2  0  0  0  0  0  0  0  0  0
    3.3710   18.9860   -1.0940 O   0  0  0  0  0  0  0  0  0  0  0  0
    3.9410   16.8390   -2.1060 C   0  0  0  0  0  0  0  0  0  0  0  0
    4.9660   15.6810   -2.0200 C   0  0  0  0  0  0  0  0  0  0  0  0
    4.3030   17.6450   -3.3820 C   0  0  0  0  0  0  0  0  0  0  0  0
    0.5280   15.0500   -0.8410 C   0  0  1  0  0  0  0  0  0  0  0  0
   -0.5030   16.1850   -0.5550 C   0  0  0  0  0  0  0  0  0  0  0  0
    0.3680   14.0010    0.3220 C   0  0  0  0  0  0  0  0  0  0  0  0
    0.7640   12.5460    0.0040 C   0  0  0  0  0  0  0  0  0  0  0  0
    0.1200   12.0750   -1.3030 C   0  0  2  0  0  0  0  0  0  0  0  0
   -1.4340   12.1010   -1.1070 C   0  0  0  0  0  0  0  0  0  0  0  0
    0.7702    8.8306    0.7594 H   0  0  0  0  0  0  0  0  0  0  0  0
    0.8967    7.6322   -0.5727 H   0  0  0  0  0  0  0  0  0  0  0  0
    1.9471    9.0894   -0.5727 H   0  0  0  0  0  0  0  0  0  0  0  0
   -0.8730    9.8151   -0.3924 H   0  0  0  0  0  0  0  0  0  0  0  0
   -0.7117    9.0273   -3.1356 H   0  0  0  0  0  0  0  0  0  0  0  0
   -0.3639    7.5767   -2.0782 H   0  0  0  0  0  0  0  0  0  0  0  0
   -2.4674    8.2110   -0.7899 H   0  0  0  0  0  0  0  0  0  0  0  0
   -2.8461    9.2981   -2.1904 H   0  0  0  0  0  0  0  0  0  0  0  0
   -1.9167    6.7067   -2.6004 H   0  0  0  0  0  0  0  0  0  0  0  0
   -4.9504    7.1725   -0.4808 H   0  0  0  0  0  0  0  0  0  0  0  0
   -5.2550    8.4743   -1.6805 H   0  0  0  0  0  0  0  0  0  0  0  0
   -6.2757    6.9962   -1.6805 H   0  0  0  0  0  0  0  0  0  0  0  0
   -4.7691    4.7103   -1.9628 H   0  0  0  0  0  0  0  0  0  0  0  0
   -5.5536    5.3124   -3.4624 H   0  0  0  0  0  0  0  0  0  0  0  0
   -3.8017    4.9152   -3.4624 H   0  0  0  0  0  0  0  0  0  0  0  0
    1.5782   10.4725   -1.5820 H   0  0  0  0  0  0  0  0  0  0  0  0
    0.9701   10.2560   -3.9098 H   0  0  0  0  0  0  0  0  0  0  0  0
   -0.7643   10.1913   -3.5309 H   0  0  0  0  0  0  0  0  0  0  0  0
    0.6190   12.4514   -4.6017 H   0  0  0  0  0  0  0  0  0  0  0  0
   -0.9899   12.5258   -3.8880 H   0  0  0  0  0  0  0  0  0  0  0  0
    2.7019   12.9033   -1.7159 H   0  0  0  0  0  0  0  0  0  0  0  0
    2.4527   12.0137   -3.2565 H   0  0  0  0  0  0  0  0  0  0  0  0
    2.5189   13.8088   -3.2565 H   0  0  0  0  0  0  0  0  0  0  0  0
   -0.9415   14.3262   -2.2707 H   0  0  0  0  0  0  0  0  0  0  0  0
    0.5074   14.8574   -4.3339 H   0  0  0  0  0  0  0  0  0  0  0  0
   -0.2966   16.1995   -3.3632 H   0  0  0  0  0  0  0  0  0  0  0  0
    2.1774   16.6509   -4.1495 H   0  0  0  0  0  0  0  0  0  0  0  0
    2.6126   14.7419   -0.6178 H   0  0  0  0  0  0  0  0  0  0  0  0
    1.5620   17.5353    0.1455 H   0  0  0  0  0  0  0  0  0  0  0  0
    1.9593   16.1689    1.2799 H   0  0  0  0  0  0  0  0  0  0  0  0
    3.7318   17.8959    1.2360 H   0  0  0  0  0  0  0  0  0  0  0  0
    4.3009   16.2847    0.6489 H   0  0  0  0  0  0  0  0  0  0  0  0
    5.1880   17.9852   -0.7915 H   0  0  0  0  0  0  0  0  0  0  0  0
    2.4800   18.7350   -1.3920 H   0  0  0  0  0  0  0  0  0  0  0  0
    5.1705   15.4500   -0.9641 H   0  0  0  0  0  0  0  0  0  0  0  0
    4.5552   14.7900   -2.5174 H   0  0  0  0  0  0  0  0  0  0  0  0
    5.9003   15.9806   -2.5174 H   0  0  0  0  0  0  0  0  0  0  0  0
    4.7378   18.6132   -3.0930 H   0  0  0  0  0  0  0  0  0  0  0  0
    5.0332   17.0785   -3.9787 H   0  0  0  0  0  0  0  0  0  0  0  0
    3.3946   17.8145   -3.9787 H   0  0  0  0  0  0  0  0  0  0  0  0
   -0.6175   16.3110    0.5317 H   0  0  0  0  0  0  0  0  0  0  0  0
   -0.1445   17.1261   -0.9975 H   0  0  0  0  0  0  0  0  0  0  0  0
   -1.4741   15.9183   -0.9975 H   0  0  0  0  0  0  0  0  0  0  0  0
    0.9907   14.3392    1.1633 H   0  0  0  0  0  0  0  0  0  0  0  0
   -0.7112   13.9664    0.5323 H   0  0  0  0  0  0  0  0  0  0  0  0
    1.8581   12.4836   -0.0912 H   0  0  0  0  0  0  0  0  0  0  0  0
    0.4108   11.9001    0.8213 H   0  0  0  0  0  0  0  0  0  0  0  0
   -1.6680   12.1049   -0.0322 H   0  0  0  0  0  0  0  0  0  0  0  0
   -1.8476   13.0062   -1.5756 H   0  0  0  0  0  0  0  0  0  0  0  0
   -1.8776   11.2102   -1.5756 H   0  0  0  0  0  0  0  0  0  0  0  0
  1  2  1  0
  2  3  1  0
  3  4  1  0
  4  5  1  0
  5  6  1  0
  6  7  1  0
  7  8  1  0
  7  9  1  0
  2 10  1  0
 10 11  1  0
 11 12  1  0
 12 13  1  0
 13 14  1  6
 13 15  1  0
 15 16  1  0
 16 17  1  0
 17 18  2  0
 18 19  1  0
 19 20  1  0
 20 21  1  0
 21 22  1  0
 22 23  1  0
 22 24  1  0
 24 25  1  0
 24 26  1  0
 19 27  1  0
 27 28  1  1
 27 29  1  0
 29 30  1  0
 30 31  1  0
 31 32  1  1
  7  5  1  0
 31 10  1  0
 31 13  1  0
 27 15  1  0
 24 18  1  0
  1 33  1  0
  1 34  1  0
  1 35  1  0
  2 36  1  1
  3 37  1  0
  3 38  1  0
  4 39  1  0
  4 40  1  0
  5 41  1  6
  8 42  1  0
  8 43  1  0
  8 44  1  0
  9 45  1  0
  9 46  1  0
  9 47  1  0
 10 48  1  6
 11 49  1  0
 11 50  1  0
 12 51  1  0
 12 52  1  0
 14 53  1  0
 14 54  1  0
 14 55  1  0
 15 56  1  1
 16 57  1  0
 16 58  1  0
 17 59  1  0
 19 60  1  1
 20 61  1  0
 20 62  1  0
 21 63  1  0
 21 64  1  0
 22 65  1  1
 23 66  1  0
 25 67  1  0
 25 68  1  0
 25 69  1  0
 26 70  1  0
 26 71  1  0
 26 72  1  0
 28 73  1  0
 28 74  1  0
 28 75  1  0
 29 76  1  0
 29 77  1  0
 30 78  1  0
 30 79  1  0
 32 80  1  0
 32 81  1  0
 32 82  1  0
M  END
>  <meeko>  (13) 
{"is_sidechain": [false], "intermolecular_energy": 2.731, "internal_energy": -0.839}

$$$$
EPH_relaxed_0001_pdb2pqr_Repair_145_r2_0001_out
     RDKit          3D

 82 86  0  0  0  0  0  0  0  0999 V2000
    3.8920   17.9460   -3.5230 C   0  0  0  0  0  0  0  0  0  0  0  0
    2.6530   17.7310   -2.6490 C   0  0  2  0  0  0  0  0  0  0  0  0
    2.4780   18.8510   -1.6050 C   0  0  0  0  0  0  0  0  0  0  0  0
    1.2920   19.7780   -1.8880 C   0  0  0  0  0  0  0  0  0  0  0  0
    0.0090   19.2140   -1.3590 C   0  0  2  0  0  0  0  0  0  0  0  0
   -0.9810   20.1940   -1.0190 O   0  0  0  0  0  0  0  0  0  0  0  0
   -0.4650   19.4100    0.0690 C   0  0  0  0  0  0  0  0  0  0  0  0
    0.3390   20.1940    1.0570 C   0  0  0  0  0  0  0  0  0  0  0  0
   -1.4550   18.4390    0.6340 C   0  0  0  0  0  0  0  0  0  0  0  0
    2.7360   16.3780   -1.9530 C   0  0  1  0  0  0  0  0  0  0  0  0
    3.2930   16.4830   -0.5080 C   0  0  0  0  0  0  0  0  0  0  0  0
    2.5570   15.4090    0.3340 C   0  0  0  0  0  0  0  0  0  0  0  0
    1.8540   14.5090   -0.7100 C   0  0  1  0  0  0  0  0  0  0  0  0
    2.9650   13.5350   -1.2130 C   0  0  0  0  0  0  0  0  0  0  0  0
    0.5880   13.7360   -0.2150 C   0  0  2  0  0  0  0  0  0  0  0  0
    0.8440   12.7220    0.9140 C   0  0  0  0  0  0  0  0  0  0  0  0
    1.1690   11.3360    0.4650 C   0  0  0  0  0  0  0  0  0  0  0  0
    0.9770   10.8500   -0.7760 C   0  0  0  0  0  0  0  0  0  0  0  0
    0.2880   11.6960   -1.8540 C   0  0  1  0  0  0  0  0  0  0  0  0
   -0.7820   10.8380   -2.5800 C   0  0  0  0  0  0  0  0  0  0  0  0
   -0.2100    9.5360   -3.1350 C   0  0  0  0  0  0  0  0  0  0  0  0
    0.4150    8.6970   -2.0230 C   0  0  2  0  0  0  0  0  0  0  0  0
   -0.6220    8.2580   -1.1390 O   0  0  0  0  0  0  0  0  0  0  0  0
    1.5010    9.4610   -1.2160 C   0  0  0  0  0  0  0  0  0  0  0  0
    2.7550    9.6720   -2.1000 C   0  0  0  0  0  0  0  0  0  0  0  0
    1.9480    8.5520   -0.0390 C   0  0  0  0  0  0  0  0  0  0  0  0
   -0.2790   13.1010   -1.3760 C   0  0  1  0  0  0  0  0  0  0  0  0
   -1.7220   12.9290   -0.8110 C   0  0  0  0  0  0  0  0  0  0  0  0
   -0.4010   14.0570   -2.6220 C   0  0  0  0  0  0  0  0  0  0  0  0
    0.8460   14.8840   -2.9880 C   0  0  0  0  0  0  0  0  0  0  0  0
    1.4130   15.5960   -1.7570 C   0  0  2  0  0  0  0  0  0  0  0  0
    0.3260   16.5990   -1.2420 C   0  0  0  0  0  0  0  0  0  0  0  0
    4.7718   18.0987   -2.8807 H   0  0  0  0  0  0  0  0  0  0  0  0
    4.0506   17.0620   -4.1581 H   0  0  0  0  0  0  0  0  0  0  0  0
    3.7435   18.8318   -4.1581 H   0  0  0  0  0  0  0  0  0  0  0  0
    1.7738   17.7554   -3.3096 H   0  0  0  0  0  0  0  0  0  0  0  0
    2.3279   18.3863   -0.6193 H   0  0  0  0  0  0  0  0  0  0  0  0
    3.3861   19.4706   -1.6436 H   0  0  0  0  0  0  0  0  0  0  0  0
    1.4779   20.7508   -1.4094 H   0  0  0  0  0  0  0  0  0  0  0  0
    1.1947   19.8871   -2.9782 H   0  0  0  0  0  0  0  0  0  0  0  0
    0.1197   18.3148   -1.9829 H   0  0  0  0  0  0  0  0  0  0  0  0
    0.0456   19.9079    2.0778 H   0  0  0  0  0  0  0  0  0  0  0  0
    1.4084   19.9823    0.9099 H   0  0  0  0  0  0  0  0  0  0  0  0
    0.1543   21.2684    0.9099 H   0  0  0  0  0  0  0  0  0  0  0  0
   -1.4180   18.4752    1.7328 H   0  0  0  0  0  0  0  0  0  0  0  0
   -2.4660   18.7054    0.2921 H   0  0  0  0  0  0  0  0  0  0  0  0
   -1.2082   17.4230    0.2921 H   0  0  0  0  0  0  0  0  0  0  0  0
    3.3856   15.8451   -2.6630 H   0  0  0  0  0  0  0  0  0  0  0  0
    4.3760   16.2905   -0.5045 H   0  0  0  0  0  0  0  0  0  0  0  0
    3.1305   17.4891   -0.0941 H   0  0  0  0  0  0  0  0  0  0  0  0
    3.2734   14.8251    0.9305 H   0  0  0  0  0  0  0  0  0  0  0  0
    1.8473   15.8526    1.0478 H   0  0  0  0  0  0  0  0  0  0  0  0
    3.4773   13.0859   -0.3494 H   0  0  0  0  0  0  0  0  0  0  0  0
    2.5083   12.7410   -1.8220 H   0  0  0  0  0  0  0  0  0  0  0  0
    3.6924   14.0917   -1.8220 H   0  0  0  0  0  0  0  0  0  0  0  0
   -0.0178   14.5372    0.2335 H   0  0  0  0  0  0  0  0  0  0  0  0
    1.6871   13.0904    1.5169 H   0  0  0  0  0  0  0  0  0  0  0  0
   -0.0993   12.6467    1.4749 H   0  0  0  0  0  0  0  0  0  0  0  0
    1.6021   10.6537    1.2113 H   0  0  0  0  0  0  0  0  0  0  0  0
    1.0775   11.9870   -2.5625 H   0  0  0  0  0  0  0  0  0  0  0  0
   -1.5831   10.5953   -1.8663 H   0  0  0  0  0  0  0  0  0  0  0  0
   -1.1609   11.4252   -3.4295 H   0  0  0  0  0  0  0  0  0  0  0  0
   -1.0189    8.9605   -3.6089 H   0  0  0  0  0  0  0  0  0  0  0  0
    0.5701    9.7807   -3.8710 H   0  0  0  0  0  0  0  0  0  0  0  0
    0.9204    7.8431   -2.4979 H   0  0  0  0  0  0  0  0  0  0  0  0
   -0.5140    7.3000   -1.0130 H   0  0  0  0  0  0  0  0  0  0  0  0
    3.6357    9.8202   -1.4577 H   0  0  0  0  0  0  0  0  0  0  0  0
    2.9090    8.7871   -2.7351 H   0  0  0  0  0  0  0  0  0  0  0  0
    2.6110   10.5585   -2.7351 H   0  0  0  0  0  0  0  0  0  0  0  0
    1.7067    9.0428    0.9154 H   0  0  0  0  0  0  0  0  0  0  0  0
    1.4210    7.5883   -0.0993 H   0  0  0  0  0  0  0  0  0  0  0  0
    3.0330    8.3810   -0.0993 H   0  0  0  0  0  0  0  0  0  0  0  0
   -1.6882   12.9330    0.2885 H   0  0  0  0  0  0  0  0  0  0  0  0
   -2.3542   13.7581   -1.1614 H   0  0  0  0  0  0  0  0  0  0  0  0
   -2.1416   11.9745   -1.1614 H   0  0  0  0  0  0  0  0  0  0  0  0
   -0.6564   13.4365   -3.4937 H   0  0  0  0  0  0  0  0  0  0  0  0
   -1.1654   14.7972   -2.3430 H   0  0  0  0  0  0  0  0  0  0  0  0
    1.6138   14.2134   -3.4011 H   0  0  0  0  0  0  0  0  0  0  0  0
    0.5576   15.6431   -3.7300 H   0  0  0  0  0  0  0  0  0  0  0  0
    0.3221   16.6026   -0.1420 H   0  0  0  0  0  0  0  0  0  0  0  0
    0.5553   17.6095   -1.6111 H   0  0  0  0  0  0  0  0  0  0  0  0
   -0.6629   16.2894   -1.6111 H   0  0  0  0  0  0  0  0  0  0  0  0
  1  2  1  0
  2  3  1  0
  3  4  1  0
  4  5  1  0
  5  6  1  0
  6  7  1  0
  7  8  1  0
  7  9  1  0
  2 10  1  0
 10 11  1  0
 11 12  1  0
 12 13  1  0
 13 14  1  6
 13 15  1  0
 15 16  1  0
 16 17  1  0
 17 18  2  0
 18 19  1  0
 19 20  1  0
 20 21  1  0
 21 22  1  0
 22 23  1  0
 22 24  1  0
 24 25  1  0
 24 26  1  0
 19 27  1  0
 27 28  1  1
 27 29  1  0
 29 30  1  0
 30 31  1  0
 31 32  1  1
  7  5  1  0
 31 10  1  0
 31 13  1  0
 27 15  1  0
 24 18  1  0
  1 33  1  0
  1 34  1  0
  1 35  1  0
  2 36  1  6
  3 37  1  0
  3 38  1  0
  4 39  1  0
  4 40  1  0
  5 41  1  6
  8 42  1  0
  8 43  1  0
  8 44  1  0
  9 45  1  0
  9 46  1  0
  9 47  1  0
 10 48  1  6
 11 49  1  0
 11 50  1  0
 12 51  1  0
 12 52  1  0
 14 53  1  0
 14 54  1  0
 14 55  1  0
 15 56  1  1
 16 57  1  0
 16 58  1  0
 17 59  1  0
 19 60  1  6
 20 61  1  0
 20 62  1  0
 21 63  1  0
 21 64  1  0
 22 65  1  6
 23 66  1  0
 25 67  1  0
 25 68  1  0
 25 69  1  0
 26 70  1  0
 26 71  1  0
 26 72  1  0
 28 73  1  0
 28 74  1  0
 28 75  1  0
 29 76  1  0
 29 77  1  0
 30 78  1  0
 30 79  1  0
 32 80  1  0
 32 81  1  0
 32 82  1  0
M  END
>  <meeko>  (14) 
{"is_sidechain": [false], "intermolecular_energy": 2.731, "internal_energy": -0.839}

$$$$
EPH_relaxed_0001_pdb2pqr_Repair_145_r2_0001_out
     RDKit          3D

 82 86  0  0  0  0  0  0  0  0999 V2000
    1.4260   17.7040   -2.6120 C   0  0  0  0  0  0  0  0  0  0  0  0
    2.7330   17.0580   -2.1420 C   0  0  2  0  0  0  0  0  0  0  0  0
    3.9570   17.6060   -2.9030 C   0  0  0  0  0  0  0  0  0  0  0  0
    5.2970   17.2040   -2.2820 C   0  0  0  0  0  0  0  0  0  0  0  0
    6.4550   17.7100   -3.0880 C   0  0  2  0  0  0  0  0  0  0  0  0
    6.2240   17.7600   -4.5020 O   0  0  0  0  0  0  0  0  0  0  0  0
    7.2400   16.8460   -4.0570 C   0  0  0  0  0  0  0  0  0  0  0  0
    6.8980   15.4050   -4.2710 C   0  0  0  0  0  0  0  0  0  0  0  0
    8.6300   17.2640   -4.4250 C   0  0  0  0  0  0  0  0  0  0  0  0
    2.6520   15.5450   -2.3060 C   0  0  1  0  0  0  0  0  0  0  0  0
    4.0350   14.9000   -2.5880 C   0  0  0  0  0  0  0  0  0  0  0  0
    4.0360   13.5170   -1.8870 C   0  0  0  0  0  0  0  0  0  0  0  0
    2.5560   13.2700   -1.5110 C   0  0  1  0  0  0  0  0  0  0  0  0
    1.8920   12.7450   -2.8230 C   0  0  0  0  0  0  0  0  0  0  0  0
    2.3000   12.3040   -0.3080 C   0  0  2  0  0  0  0  0  0  0  0  0
    2.7900   10.8600   -0.5150 C   0  0  0  0  0  0  0  0  0  0  0  0
    1.7900    9.9270   -1.1140 C   0  0  0  0  0  0  0  0  0  0  0  0
    0.4660   10.1550   -1.2080 C   0  0  0  0  0  0  0  0  0  0  0  0
   -0.1620   11.4120   -0.5940 C   0  0  1  0  0  0  0  0  0  0  0  0
   -1.4370   11.0200    0.1980 C   0  0  0  0  0  0  0  0  0  0  0  0
   -2.4280   10.2240   -0.6450 C   0  0  0  0  0  0  0  0  0  0  0  0
   -1.7830    8.9520   -1.1890 C   0  0  2  0  0  0  0  0  0  0  0  0
   -1.4960    8.0760   -0.0950 O   0  0  0  0  0  0  0  0  0  0  0  0
   -0.4840    9.2220   -1.9980 C   0  0  0  0  0  0  0  0  0  0  0  0
   -0.8390    9.9120   -3.3390 C   0  0  0  0  0  0  0  0  0  0  0  0
    0.1410    7.8500   -2.3690 C   0  0  0  0  0  0  0  0  0  0  0  0
    0.8180   12.3380    0.2460 C   0  0  1  0  0  0  0  0  0  0  0  0
    0.8840   11.8410    1.7230 C   0  0  0  0  0  0  0  0  0  0  0  0
    0.2310   13.7980    0.2960 C   0  0  0  0  0  0  0  0  0  0  0  0
    0.6170   14.7420   -0.8600 C   0  0  0  0  0  0  0  0  0  0  0  0
    2.1300   14.7260   -1.0980 C   0  0  2  0  0  0  0  0  0  0  0  0
    2.8240   15.2700    0.1970 C   0  0  0  0  0  0  0  0  0  0  0  0
    0.8279   17.9996   -1.7374 H   0  0  0  0  0  0  0  0  0  0  0  0
    1.6537   18.5933   -3.2180 H   0  0  0  0  0  0  0  0  0  0  0  0
    0.8578   16.9830   -3.2180 H   0  0  0  0  0  0  0  0  0  0  0  0
    2.8647   17.3104   -1.0795 H   0  0  0  0  0  0  0  0  0  0  0  0
    3.9239   17.2252   -3.9345 H   0  0  0  0  0  0  0  0  0  0  0  0
    3.8983   18.7036   -2.8592 H   0  0  0  0  0  0  0  0  0  0  0  0
    5.3593   17.6225   -1.2666 H   0  0  0  0  0  0  0  0  0  0  0  0
    5.3488   16.1055   -2.2592 H   0  0  0  0  0  0  0  0  0  0  0  0
    6.7698   18.3695   -2.2658 H   0  0  0  0  0  0  0  0  0  0  0  0
    6.7800   14.9076   -3.2970 H   0  0  0  0  0  0  0  0  0  0  0  0
    5.9575   15.3315   -4.8367 H   0  0  0  0  0  0  0  0  0  0  0  0
    7.7052   14.9167   -4.8367 H   0  0  0  0  0  0  0  0  0  0  0  0
    9.2144   17.4398   -3.5098 H   0  0  0  0  0  0  0  0  0  0  0  0
    9.1070   16.4696   -5.0178 H   0  0  0  0  0  0  0  0  0  0  0  0
    8.5897   18.1898   -5.0178 H   0  0  0  0  0  0  0  0  0  0  0  0
    1.9350   15.4875   -3.1382 H   0  0  0  0  0  0  0  0  0  0  0  0
    4.1810   14.7756   -3.6711 H   0  0  0  0  0  0  0  0  0  0  0  0
    4.8505   15.5343   -2.2104 H   0  0  0  0  0  0  0  0  0  0  0  0
    4.3988   12.7353   -2.5706 H   0  0  0  0  0  0  0  0  0  0  0  0
    4.6991   13.4942   -1.0096 H   0  0  0  0  0  0  0  0  0  0  0  0
    1.0525   12.0812   -2.5689 H   0  0  0  0  0  0  0  0  0  0  0  0
    1.5208   13.5965   -3.4122 H   0  0  0  0  0  0  0  0  0  0  0  0
    2.6349   12.1874   -3.4122 H   0  0  0  0  0  0  0  0  0  0  0  0
    2.9439   12.7280    0.4766 H   0  0  0  0  0  0  0  0  0  0  0  0
    3.6667   10.8904   -1.1787 H   0  0  0  0  0  0  0  0  0  0  0  0
    3.0105   10.4666    0.4883 H   0  0  0  0  0  0  0  0  0  0  0  0
    2.1664    8.9731   -1.5120 H   0  0  0  0  0  0  0  0  0  0  0  0
   -0.4330   12.0604   -1.4403 H   0  0  0  0  0  0  0  0  0  0  0  0
   -1.1405   10.4096    1.0637 H   0  0  0  0  0  0  0  0  0  0  0  0
   -1.9353   11.9498    0.5096 H   0  0  0  0  0  0  0  0  0  0  0  0
   -3.2927    9.9512   -0.0222 H   0  0  0  0  0  0  0  0  0  0  0  0
   -2.7466   10.8468   -1.4939 H   0  0  0  0  0  0  0  0  0  0  0  0
   -2.4975    8.4926   -1.8879 H   0  0  0  0  0  0  0  0  0  0  0  0
   -0.6150    8.3100    0.2450 H   0  0  0  0  0  0  0  0  0  0  0  0
   -1.3337   10.8735   -3.1369 H   0  0  0  0  0  0  0  0  0  0  0  0
    0.0810   10.0871   -3.9161 H   0  0  0  0  0  0  0  0  0  0  0  0
   -1.5163    9.2653   -3.9161 H   0  0  0  0  0  0  0  0  0  0  0  0
    0.3913    7.3005   -1.4496 H   0  0  0  0  0  0  0  0  0  0  0  0
   -0.5801    7.2664   -2.9601 H   0  0  0  0  0  0  0  0  0  0  0  0
    1.0546    8.0111   -2.9601 H   0  0  0  0  0  0  0  0  0  0  0  0
    0.7702   12.6977    2.4036 H   0  0  0  0  0  0  0  0  0  0  0  0
    0.0738   11.1192    1.9035 H   0  0  0  0  0  0  0  0  0  0  0  0
    1.8545   11.3556    1.9035 H   0  0  0  0  0  0  0  0  0  0  0  0
   -0.8659   13.7156    0.3063 H   0  0  0  0  0  0  0  0  0  0  0  0
    0.6674   14.2531    1.1974 H   0  0  0  0  0  0  0  0  0  0  0  0
    0.1048   14.4160   -1.7773 H   0  0  0  0  0  0  0  0  0  0  0  0
    0.3144   15.7654   -0.5935 H   0  0  0  0  0  0  0  0  0  0  0  0
    2.3118   14.8685    1.0838 H   0  0  0  0  0  0  0  0  0  0  0  0
    3.8778   14.9549    0.2082 H   0  0  0  0  0  0  0  0  0  0  0  0
    2.7697   16.3686    0.2082 H   0  0  0  0  0  0  0  0  0  0  0  0
  1  2  1  0
  2  3  1  0
  3  4  1  0
  4  5  1  0
  5  6  1  0
  6  7  1  0
  7  8  1  0
  7  9  1  0
  2 10  1  0
 10 11  1  0
 11 12  1  0
 12 13  1  0
 13 14  1  6
 13 15  1  0
 15 16  1  0
 16 17  1  0
 17 18  2  0
 18 19  1  0
 19 20  1  0
 20 21  1  0
 21 22  1  0
 22 23  1  0
 22 24  1  0
 24 25  1  0
 24 26  1  0
 19 27  1  0
 27 28  1  1
 27 29  1  0
 29 30  1  0
 30 31  1  0
 31 32  1  1
  7  5  1  0
 31 10  1  0
 31 13  1  0
 27 15  1  0
 24 18  1  0
  1 33  1  0
  1 34  1  0
  1 35  1  0
  2 36  1  1
  3 37  1  0
  3 38  1  0
  4 39  1  0
  4 40  1  0
  5 41  1  1
  8 42  1  0
  8 43  1  0
  8 44  1  0
  9 45  1  0
  9 46  1  0
  9 47  1  0
 10 48  1  6
 11 49  1  0
 11 50  1  0
 12 51  1  0
 12 52  1  0
 14 53  1  0
 14 54  1  0
 14 55  1  0
 15 56  1  1
 16 57  1  0
 16 58  1  0
 17 59  1  0
 19 60  1  6
 20 61  1  0
 20 62  1  0
 21 63  1  0
 21 64  1  0
 22 65  1  6
 23 66  1  0
 25 67  1  0
 25 68  1  0
 25 69  1  0
 26 70  1  0
 26 71  1  0
 26 72  1  0
 28 73  1  0
 28 74  1  0
 28 75  1  0
 29 76  1  0
 29 77  1  0
 30 78  1  0
 30 79  1  0
 32 80  1  0
 32 81  1  0
 32 82  1  0
M  END
>  <meeko>  (15) 
{"is_sidechain": [false], "intermolecular_energy": 2.731, "internal_energy": -0.839}

$$$$
EPH_relaxed_0001_pdb2pqr_Repair_145_r2_0001_out
     RDKit          3D

 82 86  0  0  0  0  0  0  0  0999 V2000
   -0.9400   10.8510   -1.6550 C   0  0  0  0  0  0  0  0  0  0  0  0
    0.3280   10.3600   -0.9520 C   0  0  2  0  0  0  0  0  0  0  0  0
    0.0360    9.8190    0.4620 C   0  0  0  0  0  0  0  0  0  0  0  0
    0.7980   10.5500    1.5710 C   0  0  0  0  0  0  0  0  0  0  0  0
   -0.0450   11.6060    2.2200 C   0  0  2  0  0  0  0  0  0  0  0  0
    0.4710   12.9380    2.1050 O   0  0  0  0  0  0  0  0  0  0  0  0
    0.3980   12.4000    3.4350 C   0  0  0  0  0  0  0  0  0  0  0  0
    1.7320   12.1710    4.0730 C   0  0  0  0  0  0  0  0  0  0  0  0
   -0.6500   13.0440    4.2890 C   0  0  0  0  0  0  0  0  0  0  0  0
    1.3510   11.4880   -0.8770 C   0  0  1  0  0  0  0  0  0  0  0  0
    2.6990   11.1170   -1.5510 C   0  0  0  0  0  0  0  0  0  0  0  0
    3.2480   12.4160   -2.1950 C   0  0  0  0  0  0  0  0  0  0  0  0
    2.3800   13.5470   -1.5960 C   0  0  1  0  0  0  0  0  0  0  0  0
    3.0030   13.8300   -0.1930 C   0  0  0  0  0  0  0  0  0  0  0  0
    2.2600   14.8520   -2.4480 C   0  0  2  0  0  0  0  0  0  0  0  0
    3.5840   15.6000   -2.6850 C   0  0  0  0  0  0  0  0  0  0  0  0
    3.9240   16.6340   -1.6630 C   0  0  0  0  0  0  0  0  0  0  0  0
    3.0710   17.1500   -0.7590 C   0  0  0  0  0  0  0  0  0  0  0  0
    1.5850   16.7660   -0.7680 C   0  0  1  0  0  0  0  0  0  0  0  0
    0.7190   18.0450   -0.6330 C   0  0  0  0  0  0  0  0  0  0  0  0
    1.0970   18.8820    0.5860 C   0  0  0  0  0  0  0  0  0  0  0  0
    2.5660   19.2930    0.5300 C   0  0  2  0  0  0  0  0  0  0  0  0
    2.7510   20.1940   -0.5660 O   0  0  0  0  0  0  0  0  0  0  0  0
    3.5350   18.0870    0.3830 C   0  0  0  0  0  0  0  0  0  0  0  0
    3.5560   17.2730    1.7010 C   0  0  0  0  0  0  0  0  0  0  0  0
    4.9710   18.6470    0.1970 C   0  0  0  0  0  0  0  0  0  0  0  0
    1.1170   15.8360   -1.9690 C   0  0  1  0  0  0  0  0  0  0  0  0
    0.7380   16.7110   -3.2030 C   0  0  0  0  0  0  0  0  0  0  0  0
   -0.1930   15.0710   -1.5470 C   0  0  0  0  0  0  0  0  0  0  0  0
   -0.0080   13.7290   -0.8130 C   0  0  0  0  0  0  0  0  0  0  0  0
    0.9820   12.8290   -1.5590 C   0  0  2  0  0  0  0  0  0  0  0  0
    0.3720   12.5090   -2.9660 C   0  0  0  0  0  0  0  0  0  0  0  0
   -1.6879   11.1406   -0.9021 H   0  0  0  0  0  0  0  0  0  0  0  0
   -0.6973   11.7202   -2.2840 H   0  0  0  0  0  0  0  0  0  0  0  0
   -1.3460   10.0451   -2.2840 H   0  0  0  0  0  0  0  0  0  0  0  0
    0.7344    9.5282   -1.5462 H   0  0  0  0  0  0  0  0  0  0  0  0
   -1.0419    9.9201    0.6566 H   0  0  0  0  0  0  0  0  0  0  0  0
    0.3696    8.7710    0.4801 H   0  0  0  0  0  0  0  0  0  0  0  0
    1.1043    9.8195    2.3342 H   0  0  0  0  0  0  0  0  0  0  0  0
    1.6737   11.0396    1.1199 H   0  0  0  0  0  0  0  0  0  0  0  0
   -0.9631   11.0404    2.0027 H   0  0  0  0  0  0  0  0  0  0  0  0
    1.6231   12.1897    5.1674 H   0  0  0  0  0  0  0  0  0  0  0  0
    2.1248   11.1923    3.7603 H   0  0  0  0  0  0  0  0  0  0  0  0
    2.4288   12.9627    3.7603 H   0  0  0  0  0  0  0  0  0  0  0  0
   -0.4027   12.8920    5.3500 H   0  0  0  0  0  0  0  0  0  0  0  0
   -0.6883   14.1217    4.0722 H   0  0  0  0  0  0  0  0  0  0  0  0
   -1.6288   12.5913    4.0722 H   0  0  0  0  0  0  0  0  0  0  0  0
    1.3990   11.6217    0.2138 H   0  0  0  0  0  0  0  0  0  0  0  0
    3.4070   10.7381   -0.7992 H   0  0  0  0  0  0  0  0  0  0  0  0
    2.5600   10.3294   -2.3062 H   0  0  0  0  0  0  0  0  0  0  0  0
    4.3070   12.5605   -1.9351 H   0  0  0  0  0  0  0  0  0  0  0  0
    3.1979   12.3898   -3.2935 H   0  0  0  0  0  0  0  0  0  0  0  0
    2.3007   13.5110    0.5912 H   0  0  0  0  0  0  0  0  0  0  0  0
    3.9451   13.2715   -0.0907 H   0  0  0  0  0  0  0  0  0  0  0  0
    3.2022   14.9070   -0.0907 H   0  0  0  0  0  0  0  0  0  0  0  0
    1.9555   14.4650   -3.4316 H   0  0  0  0  0  0  0  0  0  0  0  0
    4.3957   14.8577   -2.7006 H   0  0  0  0  0  0  0  0  0  0  0  0
    3.4625   16.1400   -3.6356 H   0  0  0  0  0  0  0  0  0  0  0  0
    4.9593   17.0054   -1.6477 H   0  0  0  0  0  0  0  0  0  0  0  0
    1.4327   16.1183    0.1080 H   0  0  0  0  0  0  0  0  0  0  0  0
    0.8522   18.6580   -1.5366 H   0  0  0  0  0  0  0  0  0  0  0  0
   -0.3271   17.7283   -0.5091 H   0  0  0  0  0  0  0  0  0  0  0  0
    0.4707   19.7860    0.6105 H   0  0  0  0  0  0  0  0  0  0  0  0
    0.9352   18.2780    1.4910 H   0  0  0  0  0  0  0  0  0  0  0  0
    2.8096   19.7761    1.4877 H   0  0  0  0  0  0  0  0  0  0  0  0
    3.2060   19.7080   -1.2740 H   0  0  0  0  0  0  0  0  0  0  0  0
    3.5382   17.9623    2.5580 H   0  0  0  0  0  0  0  0  0  0  0  0
    2.6745   16.6162    1.7404 H   0  0  0  0  0  0  0  0  0  0  0  0
    4.4702   16.6625    1.7404 H   0  0  0  0  0  0  0  0  0  0  0  0
    5.4259   18.8244    1.1827 H   0  0  0  0  0  0  0  0  0  0  0  0
    5.5786   17.9199   -0.3617 H   0  0  0  0  0  0  0  0  0  0  0  0
    4.9260   19.5935   -0.3617 H   0  0  0  0  0  0  0  0  0  0  0  0
    0.3227   17.6698   -2.8590 H   0  0  0  0  0  0  0  0  0  0  0  0
    1.6361   16.8972   -3.8102 H   0  0  0  0  0  0  0  0  0  0  0  0
   -0.0122   16.1832   -3.8102 H   0  0  0  0  0  0  0  0  0  0  0  0
   -0.7680   15.7356   -0.8854 H   0  0  0  0  0  0  0  0  0  0  0  0
   -0.6941   14.8153   -2.4923 H   0  0  0  0  0  0  0  0  0  0  0  0
    0.3743   13.9225    0.2001 H   0  0  0  0  0  0  0  0  0  0  0  0
   -0.9807   13.2176   -0.7658 H   0  0  0  0  0  0  0  0  0  0  0  0
   -0.5956   12.0014   -2.8393 H   0  0  0  0  0  0  0  0  0  0  0  0
    0.2244   13.4458   -3.5233 H   0  0  0  0  0  0  0  0  0  0  0  0
    1.0589   11.8551   -3.5233 H   0  0  0  0  0  0  0  0  0  0  0  0
  1  2  1  0
  2  3  1  0
  3  4  1  0
  4  5  1  0
  5  6  1  0
  6  7  1  0
  7  8  1  0
  7  9  1  0
  2 10  1  0
 10 11  1  0
 11 12  1  0
 12 13  1  0
 13 14  1  1
 13 15  1  0
 15 16  1  0
 16 17  1  0
 17 18  2  0
 18 19  1  0
 19 20  1  0
 20 21  1  0
 21 22  1  0
 22 23  1  0
 22 24  1  0
 24 25  1  0
 24 26  1  0
 19 27  1  0
 27 28  1  6
 27 29  1  0
 29 30  1  0
 30 31  1  0
 31 32  1  6
  7  5  1  0
 31 10  1  0
 31 13  1  0
 27 15  1  0
 24 18  1  0
  1 33  1  0
  1 34  1  0
  1 35  1  0
  2 36  1  6
  3 37  1  0
  3 38  1  0
  4 39  1  0
  4 40  1  0
  5 41  1  1
  8 42  1  0
  8 43  1  0
  8 44  1  0
  9 45  1  0
  9 46  1  0
  9 47  1  0
 10 48  1  1
 11 49  1  0
 11 50  1  0
 12 51  1  0
 12 52  1  0
 14 53  1  0
 14 54  1  0
 14 55  1  0
 15 56  1  6
 16 57  1  0
 16 58  1  0
 17 59  1  0
 19 60  1  1
 20 61  1  0
 20 62  1  0
 21 63  1  0
 21 64  1  0
 22 65  1  1
 23 66  1  0
 25 67  1  0
 25 68  1  0
 25 69  1  0
 26 70  1  0
 26 71  1  0
 26 72  1  0
 28 73  1  0
 28 74  1  0
 28 75  1  0
 29 76  1  0
 29 77  1  0
 30 78  1  0
 30 79  1  0
 32 80  1  0
 32 81  1  0
 32 82  1  0
M  END
>  <meeko>  (16) 
{"is_sidechain": [false], "intermolecular_energy": 2.731, "internal_energy": -0.839}

$$$$
EPH_relaxed_0001_pdb2pqr_Repair_145_r2_0001_out
     RDKit          3D

 82 86  0  0  0  0  0  0  0  0999 V2000
   -0.1620    8.4610   -3.3850 C   0  0  0  0  0  0  0  0  0  0  0  0
   -0.6680    8.8700   -1.9990 C   0  0  2  0  0  0  0  0  0  0  0  0
   -2.0100    8.1960   -1.6490 C   0  0  0  0  0  0  0  0  0  0  0  0
   -2.5900    7.3520   -2.7860 C   0  0  0  0  0  0  0  0  0  0  0  0
   -4.0770    7.5120   -2.8930 C   0  0  2  0  0  0  0  0  0  0  0  0
   -4.7950    7.2550   -1.6790 O   0  0  0  0  0  0  0  0  0  0  0  0
   -5.0530    6.3570   -2.7710 C   0  0  0  0  0  0  0  0  0  0  0  0
   -4.5810    4.9570   -2.5320 C   0  0  0  0  0  0  0  0  0  0  0  0
   -6.4180    6.5090   -3.3660 C   0  0  0  0  0  0  0  0  0  0  0  0
   -0.8120   10.3860   -1.9260 C   0  0  1  0  0  0  0  0  0  0  0  0
   -2.1410   10.8280   -1.2570 C   0  0  0  0  0  0  0  0  0  0  0  0
   -1.8330   12.1240   -0.4640 C   0  0  0  0  0  0  0  0  0  0  0  0
   -0.4380   12.5660   -0.9650 C   0  0  1  0  0  0  0  0  0  0  0  0
   -0.7120   13.3050   -2.3120 C   0  0  0  0  0  0  0  0  0  0  0  0
    0.4020   13.4460    0.0170 C   0  0  2  0  0  0  0  0  0  0  0  0
   -0.2230   14.8080    0.3690 C   0  0  0  0  0  0  0  0  0  0  0  0
    0.1630   15.9370   -0.5280 C   0  0  0  0  0  0  0  0  0  0  0  0
    1.1910   15.9300   -1.3970 C   0  0  0  0  0  0  0  0  0  0  0  0
    2.1520   14.7360   -1.4700 C   0  0  1  0  0  0  0  0  0  0  0  0
    3.6160   15.2510   -1.4940 C   0  0  0  0  0  0  0  0  0  0  0  0
    3.8610   16.2660   -2.6060 C   0  0  0  0  0  0  0  0  0  0  0  0
    2.9260   17.4650   -2.4660 C   0  0  2  0  0  0  0  0  0  0  0  0
    3.2710   18.1810   -1.2760 O   0  0  0  0  0  0  0  0  0  0  0  0
    1.4240   17.0690   -2.4200 C   0  0  0  0  0  0  0  0  0  0  0  0
    0.9750   16.5680   -3.8150 C   0  0  0  0  0  0  0  0  0  0  0  0
    0.6000   18.3530   -2.1350 C   0  0  0  0  0  0  0  0  0  0  0  0
    1.9240   13.5950   -0.3870 C   0  0  1  0  0  0  0  0  0  0  0  0
    2.7000   13.9400    0.9200 C   0  0  0  0  0  0  0  0  0  0  0  0
    2.5360   12.2480   -0.9250 C   0  0  0  0  0  0  0  0  0  0  0  0
    1.6170   11.3640   -1.7900 C   0  0  0  0  0  0  0  0  0  0  0  0
    0.2560   11.1630   -1.1170 C   0  0  2  0  0  0  0  0  0  0  0  0
    0.4970   10.4020    0.2310 C   0  0  0  0  0  0  0  0  0  0  0  0
    0.6893    7.7729   -3.2762 H   0  0  0  0  0  0  0  0  0  0  0  0
   -0.9705    7.9596   -3.9373 H   0  0  0  0  0  0  0  0  0  0  0  0
    0.1587    9.3566   -3.9373 H   0  0  0  0  0  0  0  0  0  0  0  0
    0.0741    8.5305   -1.2614 H   0  0  0  0  0  0  0  0  0  0  0  0
   -1.8539    7.5437   -0.7772 H   0  0  0  0  0  0  0  0  0  0  0  0
   -2.7311    9.0017   -1.4469 H   0  0  0  0  0  0  0  0  0  0  0  0
   -2.1286    7.6658   -3.7340 H   0  0  0  0  0  0  0  0  0  0  0  0
   -2.3735    6.2948   -2.5730 H   0  0  0  0  0  0  0  0  0  0  0  0
   -3.9618    8.3037   -3.6479 H   0  0  0  0  0  0  0  0  0  0  0  0
   -4.5183    4.7709   -1.4497 H   0  0  0  0  0  0  0  0  0  0  0  0
   -5.2900    4.2486   -2.9853 H   0  0  0  0  0  0  0  0  0  0  0  0
   -3.5878    4.8225   -2.9853 H   0  0  0  0  0  0  0  0  0  0  0  0
   -7.1621    6.5919   -2.5601 H   0  0  0  0  0  0  0  0  0  0  0  0
   -6.4481    7.4161   -3.9876 H   0  0  0  0  0  0  0  0  0  0  0  0
   -6.6469    5.6308   -3.9876 H   0  0  0  0  0  0  0  0  0  0  0  0
   -0.7267   10.6315   -2.9949 H   0  0  0  0  0  0  0  0  0  0  0  0
   -2.9039   11.0257   -2.0244 H   0  0  0  0  0  0  0  0  0  0  0  0
   -2.5297   10.0417   -0.5932 H   0  0  0  0  0  0  0  0  0  0  0  0
   -2.5853   12.8977   -0.6772 H   0  0  0  0  0  0  0  0  0  0  0  0
   -1.8535   11.9621    0.6238 H   0  0  0  0  0  0  0  0  0  0  0  0
   -1.0876   14.3179   -2.1047 H   0  0  0  0  0  0  0  0  0  0  0  0
    0.2213   13.3712   -2.8904 H   0  0  0  0  0  0  0  0  0  0  0  0
   -1.4629   12.7467   -2.8904 H   0  0  0  0  0  0  0  0  0  0  0  0
    0.3752   12.8562    0.9451 H   0  0  0  0  0  0  0  0  0  0  0  0
   -1.3170   14.7006    0.3289 H   0  0  0  0  0  0  0  0  0  0  0  0
    0.1575   15.0687    1.3676 H   0  0  0  0  0  0  0  0  0  0  0  0
   -0.4443   16.8526   -0.4743 H   0  0  0  0  0  0  0  0  0  0  0  0
    1.9227   14.2178   -2.4128 H   0  0  0  0  0  0  0  0  0  0  0  0
    3.8384   15.7265   -0.5273 H   0  0  0  0  0  0  0  0  0  0  0  0
    4.2708   14.3870   -1.6804 H   0  0  0  0  0  0  0  0  0  0  0  0
    4.9031   16.6140   -2.5526 H   0  0  0  0  0  0  0  0  0  0  0  0
    3.6668   15.7804   -3.5737 H   0  0  0  0  0  0  0  0  0  0  0  0
    3.0574   18.0921   -3.3601 H   0  0  0  0  0  0  0  0  0  0  0  0
    3.7570   17.5710   -0.6950 H   0  0  0  0  0  0  0  0  0  0  0  0
    0.2453   15.7537   -3.6948 H   0  0  0  0  0  0  0  0  0  0  0  0
    0.5116   17.3966   -4.3705 H   0  0  0  0  0  0  0  0  0  0  0  0
    1.8493   16.1978   -4.3705 H   0  0  0  0  0  0  0  0  0  0  0  0
    0.5082   18.4961   -1.0482 H   0  0  0  0  0  0  0  0  0  0  0  0
    1.1098   19.2216   -2.5774 H   0  0  0  0  0  0  0  0  0  0  0  0
   -0.4020   18.2514   -2.5774 H   0  0  0  0  0  0  0  0  0  0  0  0
    2.0879   13.6679    1.7925 H   0  0  0  0  0  0  0  0  0  0  0  0
    3.6447   13.3771    0.9449 H   0  0  0  0  0  0  0  0  0  0  0  0
    2.9150   15.0185    0.9449 H   0  0  0  0  0  0  0  0  0  0  0  0
    3.4191   12.5018   -1.5298 H   0  0  0  0  0  0  0  0  0  0  0  0
    2.7489   11.6496   -0.0269 H   0  0  0  0  0  0  0  0  0  0  0  0
    1.4674   11.8480   -2.7664 H   0  0  0  0  0  0  0  0  0  0  0  0
    2.0940   10.3809   -1.9161 H   0  0  0  0  0  0  0  0  0  0  0  0
    0.2840   11.0746    1.0749 H   0  0  0  0  0  0  0  0  0  0  0  0
   -0.1681    9.5274    0.2823 H   0  0  0  0  0  0  0  0  0  0  0  0
    1.5443   10.0697    0.2823 H   0  0  0  0  0  0  0  0  0  0  0  0
  1  2  1  0
  2  3  1  0
  3  4  1  0
  4  5  1  0
  5  6  1  0
  6  7  1  0
  7  8  1  0
  7  9  1  0
  2 10  1  0
 10 11  1  0
 11 12  1  0
 12 13  1  0
 13 14  1  6
 13 15  1  0
 15 16  1  0
 16 17  1  0
 17 18  2  0
 18 19  1  0
 19 20  1  0
 20 21  1  0
 21 22  1  0
 22 23  1  0
 22 24  1  0
 24 25  1  0
 24 26  1  0
 19 27  1  0
 27 28  1  1
 27 29  1  0
 29 30  1  0
 30 31  1  0
 31 32  1  1
  7  5  1  0
 31 10  1  0
 31 13  1  0
 27 15  1  0
 24 18  1  0
  1 33  1  0
  1 34  1  0
  1 35  1  0
  2 36  1  1
  3 37  1  0
  3 38  1  0
  4 39  1  0
  4 40  1  0
  5 41  1  6
  8 42  1  0
  8 43  1  0
  8 44  1  0
  9 45  1  0
  9 46  1  0
  9 47  1  0
 10 48  1  6
 11 49  1  0
 11 50  1  0
 12 51  1  0
 12 52  1  0
 14 53  1  0
 14 54  1  0
 14 55  1  0
 15 56  1  1
 16 57  1  0
 16 58  1  0
 17 59  1  0
 19 60  1  6
 20 61  1  0
 20 62  1  0
 21 63  1  0
 21 64  1  0
 22 65  1  6
 23 66  1  0
 25 67  1  0
 25 68  1  0
 25 69  1  0
 26 70  1  0
 26 71  1  0
 26 72  1  0
 28 73  1  0
 28 74  1  0
 28 75  1  0
 29 76  1  0
 29 77  1  0
 30 78  1  0
 30 79  1  0
 32 80  1  0
 32 81  1  0
 32 82  1  0
M  END
>  <meeko>  (17) 
{"is_sidechain": [false], "intermolecular_energy": 2.731, "internal_energy": -0.839}

$$$$
EPH_relaxed_0001_pdb2pqr_Repair_145_r2_0001_out
     RDKit          3D

 82 86  0  0  0  0  0  0  0  0999 V2000
   -0.9900    8.2330   -1.9420 C   0  0  0  0  0  0  0  0  0  0  0  0
   -0.5170    8.7340   -0.5740 C   0  0  2  0  0  0  0  0  0  0  0  0
   -1.6700    9.3380    0.2530 C   0  0  0  0  0  0  0  0  0  0  0  0
   -1.4260   10.7870    0.6820 C   0  0  0  0  0  0  0  0  0  0  0  0
   -0.4320   10.8740    1.8000 C   0  0  2  0  0  0  0  0  0  0  0  0
   -0.7610   11.8250    2.8210 O   0  0  0  0  0  0  0  0  0  0  0  0
    0.4280   12.0970    2.0620 C   0  0  0  0  0  0  0  0  0  0  0  0
    0.3330   13.3170    1.2000 C   0  0  0  0  0  0  0  0  0  0  0  0
    1.6940   11.9280    2.8430 C   0  0  0  0  0  0  0  0  0  0  0  0
    0.5920    9.7640   -0.7530 C   0  0  1  0  0  0  0  0  0  0  0  0
    1.9570    9.1170   -1.1050 C   0  0  0  0  0  0  0  0  0  0  0  0
    2.6790   10.0920   -2.0690 C   0  0  0  0  0  0  0  0  0  0  0  0
    1.8650   11.4040   -1.9790 C   0  0  1  0  0  0  0  0  0  0  0  0
    2.3780   12.1060   -0.6830 C   0  0  0  0  0  0  0  0  0  0  0  0
    1.9430   12.3530   -3.2190 C   0  0  2  0  0  0  0  0  0  0  0  0
    3.3450   12.9050   -3.5310 C   0  0  0  0  0  0  0  0  0  0  0  0
    3.6800   14.2020   -2.8710 C   0  0  0  0  0  0  0  0  0  0  0  0
    2.7970   15.0360   -2.2920 C   0  0  0  0  0  0  0  0  0  0  0  0
    1.2910   14.7530   -2.3490 C   0  0  1  0  0  0  0  0  0  0  0  0
    0.5340   16.0490   -2.7430 C   0  0  0  0  0  0  0  0  0  0  0  0
    0.8720   17.2230   -1.8290 C   0  0  0  0  0  0  0  0  0  0  0  0
    2.3710   17.5110   -1.8440 C   0  0  2  0  0  0  0  0  0  0  0  0
    2.7380   17.9820   -3.1440 O   0  0  0  0  0  0  0  0  0  0  0  0
    3.2370   16.2750   -1.4720 C   0  0  0  0  0  0  0  0  0  0  0  0
    3.0620   15.9500    0.0320 C   0  0  0  0  0  0  0  0  0  0  0  0
    4.7280   16.6620   -1.6620 C   0  0  0  0  0  0  0  0  0  0  0  0
    0.8540   13.5010   -3.2270 C   0  0  1  0  0  0  0  0  0  0  0  0
    0.6710   13.9320   -4.7140 C   0  0  0  0  0  0  0  0  0  0  0  0
   -0.5530   12.9950   -2.7350 C   0  0  0  0  0  0  0  0  0  0  0  0
   -0.5590   11.9680   -1.5860 C   0  0  0  0  0  0  0  0  0  0  0  0
    0.4100   10.8170   -1.8740 C   0  0  2  0  0  0  0  0  0  0  0  0
   -0.0930   10.0780   -3.1600 C   0  0  0  0  0  0  0  0  0  0  0  0
   -1.7391    7.4396   -1.8030 H   0  0  0  0  0  0  0  0  0  0  0  0
   -1.4384    9.0664   -2.5027 H   0  0  0  0  0  0  0  0  0  0  0  0
   -0.1322    7.8332   -2.5027 H   0  0  0  0  0  0  0  0  0  0  0  0
   -0.1317    7.8664   -0.0182 H   0  0  0  0  0  0  0  0  0  0  0  0
   -2.5869    9.3051   -0.3538 H   0  0  0  0  0  0  0  0  0  0  0  0
   -1.7537    8.7402    1.1726 H   0  0  0  0  0  0  0  0  0  0  0  0
   -1.0441   11.3544   -0.1795 H   0  0  0  0  0  0  0  0  0  0  0  0
   -2.3795   11.2046    1.0376 H   0  0  0  0  0  0  0  0  0  0  0  0
   -0.1853    9.8072    1.6951 H   0  0  0  0  0  0  0  0  0  0  0  0
    0.2634   14.2113    1.8367 H   0  0  0  0  0  0  0  0  0  0  0  0
    1.2283   13.3879    0.5649 H   0  0  0  0  0  0  0  0  0  0  0  0
   -0.5625   13.2484    0.5649 H   0  0  0  0  0  0  0  0  0  0  0  0
    1.4678   11.9582    3.9191 H   0  0  0  0  0  0  0  0  0  0  0  0
    2.1534   10.9606    2.5919 H   0  0  0  0  0  0  0  0  0  0  0  0
    2.3910   12.7411    2.5919 H   0  0  0  0  0  0  0  0  0  0  0  0
    0.5508   10.2522    0.2319 H   0  0  0  0  0  0  0  0  0  0  0  0
    2.5549    8.9742   -0.1928 H   0  0  0  0  0  0  0  0  0  0  0  0
    1.8177    8.1309   -1.5721 H   0  0  0  0  0  0  0  0  0  0  0  0
    3.7181   10.2569   -1.7481 H   0  0  0  0  0  0  0  0  0  0  0  0
    2.7293    9.7020   -3.0963 H   0  0  0  0  0  0  0  0  0  0  0  0
    1.9904   11.5756    0.1993 H   0  0  0  0  0  0  0  0  0  0  0  0
    3.4778   12.0887   -0.6674 H   0  0  0  0  0  0  0  0  0  0  0  0
    2.0274   13.1485   -0.6674 H   0  0  0  0  0  0  0  0  0  0  0  0
    1.6973   11.6754   -4.0500 H   0  0  0  0  0  0  0  0  0  0  0  0
    4.0845   12.1577   -3.2074 H   0  0  0  0  0  0  0  0  0  0  0  0
    3.3617   13.1005   -4.6134 H   0  0  0  0  0  0  0  0  0  0  0  0
    4.7385   14.5010   -2.8570 H   0  0  0  0  0  0  0  0  0  0  0  0
    1.0010   14.4458   -1.3333 H   0  0  0  0  0  0  0  0  0  0  0  0
    0.8049   16.3160   -3.7752 H   0  0  0  0  0  0  0  0  0  0  0  0
   -0.5435   15.8495   -2.6467 H   0  0  0  0  0  0  0  0  0  0  0  0
    0.3302   18.1159   -2.1743 H   0  0  0  0  0  0  0  0  0  0  0  0
    0.5738   16.9660   -0.8019 H   0  0  0  0  0  0  0  0  0  0  0  0
    2.5670   18.2735   -1.0757 H   0  0  0  0  0  0  0  0  0  0  0  0
    1.9210   18.2420   -3.6040 H   0  0  0  0  0  0  0  0  0  0  0  0
    3.4981   16.7599    0.6353 H   0  0  0  0  0  0  0  0  0  0  0  0
    1.9910   15.8555    0.2645 H   0  0  0  0  0  0  0  0  0  0  0  0
    3.5726   15.0038    0.2645 H   0  0  0  0  0  0  0  0  0  0  0  0
    5.2031   16.7853   -0.6776 H   0  0  0  0  0  0  0  0  0  0  0  0
    5.2444   15.8681   -2.2215 H   0  0  0  0  0  0  0  0  0  0  0  0
    4.7932   17.6068   -2.2215 H   0  0  0  0  0  0  0  0  0  0  0  0
    0.2414   14.9439   -4.7522 H   0  0  0  0  0  0  0  0  0  0  0  0
    1.6480   13.9291   -5.2195 H   0  0  0  0  0  0  0  0  0  0  0  0
   -0.0054   13.2271   -5.2195 H   0  0  0  0  0  0  0  0  0  0  0  0
   -1.1238   13.8733   -2.3993 H   0  0  0  0  0  0  0  0  0  0  0  0
   -0.9860   12.4657   -3.5966 H   0  0  0  0  0  0  0  0  0  0  0  0
   -0.2563   12.4686   -0.6544 H   0  0  0  0  0  0  0  0  0  0  0  0
   -1.5743   11.5558   -1.4894 H   0  0  0  0  0  0  0  0  0  0  0  0
   -0.6899    9.2010   -2.8691 H   0  0  0  0  0  0  0  0  0  0  0  0
   -0.7137   10.7623   -3.7570 H   0  0  0  0  0  0  0  0  0  0  0  0
    0.7713    9.7516   -3.7570 H   0  0  0  0  0  0  0  0  0  0  0  0
  1  2  1  0
  2  3  1  0
  3  4  1  0
  4  5  1  0
  5  6  1  0
  6  7  1  0
  7  8  1  0
  7  9  1  0
  2 10  1  0
 10 11  1  0
 11 12  1  0
 12 13  1  0
 13 14  1  1
 13 15  1  0
 15 16  1  0
 16 17  1  0
 17 18  2  0
 18 19  1  0
 19 20  1  0
 20 21  1  0
 21 22  1  0
 22 23  1  0
 22 24  1  0
 24 25  1  0
 24 26  1  0
 19 27  1  0
 27 28  1  6
 27 29  1  0
 29 30  1  0
 30 31  1  0
 31 32  1  6
  7  5  1  0
 31 10  1  0
 31 13  1  0
 27 15  1  0
 24 18  1  0
  1 33  1  0
  1 34  1  0
  1 35  1  0
  2 36  1  1
  3 37  1  0
  3 38  1  0
  4 39  1  0
  4 40  1  0
  5 41  1  1
  8 42  1  0
  8 43  1  0
  8 44  1  0
  9 45  1  0
  9 46  1  0
  9 47  1  0
 10 48  1  1
 11 49  1  0
 11 50  1  0
 12 51  1  0
 12 52  1  0
 14 53  1  0
 14 54  1  0
 14 55  1  0
 15 56  1  6
 16 57  1  0
 16 58  1  0
 17 59  1  0
 19 60  1  1
 20 61  1  0
 20 62  1  0
 21 63  1  0
 21 64  1  0
 22 65  1  1
 23 66  1  0
 25 67  1  0
 25 68  1  0
 25 69  1  0
 26 70  1  0
 26 71  1  0
 26 72  1  0
 28 73  1  0
 28 74  1  0
 28 75  1  0
 29 76  1  0
 29 77  1  0
 30 78  1  0
 30 79  1  0
 32 80  1  0
 32 81  1  0
 32 82  1  0
M  END
>  <meeko>  (18) 
{"is_sidechain": [false], "intermolecular_energy": 2.731, "internal_energy": -0.839}

$$$$
EPH_relaxed_0001_pdb2pqr_Repair_145_r2_0001_out
     RDKit          3D

 82 86  0  0  0  0  0  0  0  0999 V2000
    3.3510   18.7730    0.9640 C   0  0  0  0  0  0  0  0  0  0  0  0
    3.1790   19.1300   -0.5150 C   0  0  2  0  0  0  0  0  0  0  0  0
    1.9070   19.9650   -0.7660 C   0  0  0  0  0  0  0  0  0  0  0  0
    0.6780   19.1230   -1.1200 C   0  0  0  0  0  0  0  0  0  0  0  0
   -0.5970   19.8660   -0.8570 C   0  0  2  0  0  0  0  0  0  0  0  0
   -0.8260   20.1950    0.5200 O   0  0  0  0  0  0  0  0  0  0  0  0
   -1.7610   19.2820   -0.0790 C   0  0  0  0  0  0  0  0  0  0  0  0
   -1.7050   17.8970    0.4860 C   0  0  0  0  0  0  0  0  0  0  0  0
   -3.1240   19.8650   -0.2850 C   0  0  0  0  0  0  0  0  0  0  0  0
    3.1420   17.8590   -1.3550 C   0  0  1  0  0  0  0  0  0  0  0  0
    4.4760   17.5990   -2.1040 C   0  0  0  0  0  0  0  0  0  0  0  0
    4.6760   16.0620   -2.1420 C   0  0  0  0  0  0  0  0  0  0  0  0
    3.3070   15.4800   -1.7160 C   0  0  1  0  0  0  0  0  0  0  0  0
    2.4330   15.5250   -3.0090 C   0  0  0  0  0  0  0  0  0  0  0  0
    3.3300   14.0500   -1.0850 C   0  0  2  0  0  0  0  0  0  0  0  0
    3.8410   12.9350   -2.0130 C   0  0  0  0  0  0  0  0  0  0  0  0
    2.7920   12.2530   -2.8270 C   0  0  0  0  0  0  0  0  0  0  0  0
    1.4650   12.3230   -2.6110 C   0  0  0  0  0  0  0  0  0  0  0  0
    0.9040   13.0720   -1.3960 C   0  0  1  0  0  0  0  0  0  0  0  0
   -0.1780   12.2000   -0.7050 C   0  0  0  0  0  0  0  0  0  0  0  0
   -1.2710   11.7510   -1.6690 C   0  0  0  0  0  0  0  0  0  0  0  0
   -0.6800   10.9610   -2.8340 C   0  0  2  0  0  0  0  0  0  0  0  0
   -0.1490    9.7300   -2.3330 O   0  0  0  0  0  0  0  0  0  0  0  0
    0.4280   11.7350   -3.6000 C   0  0  0  0  0  0  0  0  0  0  0  0
   -0.2060   12.9040   -4.3920 C   0  0  0  0  0  0  0  0  0  0  0  0
    1.0380   10.7750   -4.6570 C   0  0  0  0  0  0  0  0  0  0  0  0
    1.9800   13.6350   -0.3710 C   0  0  1  0  0  0  0  0  0  0  0  0
    2.3470   12.5360    0.6720 C   0  0  0  0  0  0  0  0  0  0  0  0
    1.3430   14.8240    0.4420 C   0  0  0  0  0  0  0  0  0  0  0  0
    1.4580   16.2300   -0.1780 C   0  0  0  0  0  0  0  0  0  0  0  0
    2.8970   16.5220   -0.6120 C   0  0  2  0  0  0  0  0  0  0  0  0
    3.7960   16.5050    0.6710 C   0  0  0  0  0  0  0  0  0  0  0  0
    2.9574   19.5900    1.5866 H   0  0  0  0  0  0  0  0  0  0  0  0
    2.8005   17.8464    1.1840 H   0  0  0  0  0  0  0  0  0  0  0  0
    4.4187   18.6261    1.1840 H   0  0  0  0  0  0  0  0  0  0  0  0
    4.0416   19.7455   -0.8100 H   0  0  0  0  0  0  0  0  0  0  0  0
    1.6835   20.5398    0.1449 H   0  0  0  0  0  0  0  0  0  0  0  0
    2.1130   20.6126   -1.6309 H   0  0  0  0  0  0  0  0  0  0  0  0
    0.7226   18.8578   -2.1866 H   0  0  0  0  0  0  0  0  0  0  0  0
    0.6863   18.2218   -0.4893 H   0  0  0  0  0  0  0  0  0  0  0  0
   -0.5392   20.3588   -1.8388 H   0  0  0  0  0  0  0  0  0  0  0  0
   -1.7071   17.9489    1.5848 H   0  0  0  0  0  0  0  0  0  0  0  0
   -2.5808   17.3259    0.1442 H   0  0  0  0  0  0  0  0  0  0  0  0
   -0.7860   17.3984    0.1442 H   0  0  0  0  0  0  0  0  0  0  0  0
   -3.5892   20.0640    0.6918 H   0  0  0  0  0  0  0  0  0  0  0  0
   -3.0391   20.8055   -0.8491 H   0  0  0  0  0  0  0  0  0  0  0  0
   -3.7455   19.1540   -0.8491 H   0  0  0  0  0  0  0  0  0  0  0  0
    2.2841   18.0914   -2.0030 H   0  0  0  0  0  0  0  0  0  0  0  0
    4.4201   17.9990   -3.1272 H   0  0  0  0  0  0  0  0  0  0  0  0
    5.3168   18.0941   -1.5962 H   0  0  0  0  0  0  0  0  0  0  0  0
    4.9405   15.7297   -3.1567 H   0  0  0  0  0  0  0  0  0  0  0  0
    5.4931   15.7311   -1.4841 H   0  0  0  0  0  0  0  0  0  0  0  0
    1.3700   15.5797   -2.7313 H   0  0  0  0  0  0  0  0  0  0  0  0
    2.7028   16.4104   -3.6033 H   0  0  0  0  0  0  0  0  0  0  0  0
    2.6104   14.6165   -3.6033 H   0  0  0  0  0  0  0  0  0  0  0  0
    4.0898   14.1527   -0.2963 H   0  0  0  0  0  0  0  0  0  0  0  0
    4.5737   13.3770   -2.7042 H   0  0  0  0  0  0  0  0  0  0  0  0
    4.2663   12.1625   -1.3554 H   0  0  0  0  0  0  0  0  0  0  0  0
    3.1321   11.6412   -3.6755 H   0  0  0  0  0  0  0  0  0  0  0  0
    0.4471   13.9918   -1.7898 H   0  0  0  0  0  0  0  0  0  0  0  0
    0.3061   11.3080   -0.2807 H   0  0  0  0  0  0  0  0  0  0  0  0
   -0.6525   12.8131    0.0754 H   0  0  0  0  0  0  0  0  0  0  0  0
   -1.9878   11.1147   -1.1294 H   0  0  0  0  0  0  0  0  0  0  0  0
   -1.7744   12.6434   -2.0693 H   0  0  0  0  0  0  0  0  0  0  0  0
   -1.4907   10.7801   -3.5551 H   0  0  0  0  0  0  0  0  0  0  0  0
   -0.8050    9.3530   -1.7220 H   0  0  0  0  0  0  0  0  0  0  0  0
   -0.6092   13.6474   -3.6886 H   0  0  0  0  0  0  0  0  0  0  0  0
    0.5598   13.3759   -5.0251 H   0  0  0  0  0  0  0  0  0  0  0  0
   -1.0192   12.5195   -5.0251 H   0  0  0  0  0  0  0  0  0  0  0  0
    1.5607    9.9524   -4.1469 H   0  0  0  0  0  0  0  0  0  0  0  0
    0.2347   10.3646   -5.2865 H   0  0  0  0  0  0  0  0  0  0  0  0
    1.7508   11.3279   -5.2865 H   0  0  0  0  0  0  0  0  0  0  0  0
    2.2135   12.9356    1.6881 H   0  0  0  0  0  0  0  0  0  0  0  0
    1.6913   11.6640    0.5319 H   0  0  0  0  0  0  0  0  0  0  0  0
    3.3951   12.2329    0.5319 H   0  0  0  0  0  0  0  0  0  0  0  0
    0.2730   14.6036    0.5707 H   0  0  0  0  0  0  0  0  0  0  0  0
    1.9192   14.8741    1.3777 H   0  0  0  0  0  0  0  0  0  0  0  0
    0.7980   16.2911   -1.0559 H   0  0  0  0  0  0  0  0  0  0  0  0
    1.1626   16.9719    0.5785 H   0  0  0  0  0  0  0  0  0  0  0  0
    3.1573   16.5171    1.5665 H   0  0  0  0  0  0  0  0  0  0  0  0
    4.4140   15.5950    0.6737 H   0  0  0  0  0  0  0  0  0  0  0  0
    4.4479   17.3910    0.6737 H   0  0  0  0  0  0  0  0  0  0  0  0
  1  2  1  0
  2  3  1  0
  3  4  1  0
  4  5  1  0
  5  6  1  0
  6  7  1  0
  7  8  1  0
  7  9  1  0
  2 10  1  0
 10 11  1  0
 11 12  1  0
 12 13  1  0
 13 14  1  6
 13 15  1  0
 15 16  1  0
 16 17  1  0
 17 18  2  0
 18 19  1  0
 19 20  1  0
 20 21  1  0
 21 22  1  0
 22 23  1  0
 22 24  1  0
 24 25  1  0
 24 26  1  0
 19 27  1  0
 27 28  1  1
 27 29  1  0
 29 30  1  0
 30 31  1  0
 31 32  1  1
  7  5  1  0
 31 10  1  0
 31 13  1  0
 27 15  1  0
 24 18  1  0
  1 33  1  0
  1 34  1  0
  1 35  1  0
  2 36  1  6
  3 37  1  0
  3 38  1  0
  4 39  1  0
  4 40  1  0
  5 41  1  6
  8 42  1  0
  8 43  1  0
  8 44  1  0
  9 45  1  0
  9 46  1  0
  9 47  1  0
 10 48  1  6
 11 49  1  0
 11 50  1  0
 12 51  1  0
 12 52  1  0
 14 53  1  0
 14 54  1  0
 14 55  1  0
 15 56  1  1
 16 57  1  0
 16 58  1  0
 17 59  1  0
 19 60  1  6
 20 61  1  0
 20 62  1  0
 21 63  1  0
 21 64  1  0
 22 65  1  6
 23 66  1  0
 25 67  1  0
 25 68  1  0
 25 69  1  0
 26 70  1  0
 26 71  1  0
 26 72  1  0
 28 73  1  0
 28 74  1  0
 28 75  1  0
 29 76  1  0
 29 77  1  0
 30 78  1  0
 30 79  1  0
 32 80  1  0
 32 81  1  0
 32 82  1  0
M  END
>  <meeko>  (19) 
{"is_sidechain": [false], "intermolecular_energy": 2.731, "internal_energy": -0.839}

$$$$
