EPH_relaxed_0001_pdb2pqr_Repair_388_r2_0001_out
     RDKit          3D

 82 86  0  0  0  0  0  0  0  0999 V2000
   -1.8250    8.7930   -1.8900 C   0  0  0  0  0  0  0  0  0  0  0  0
   -1.8040    9.0410   -0.3790 C   0  0  2  0  0  0  0  0  0  0  0  0
   -3.2230    9.2050    0.2010 C   0  0  0  0  0  0  0  0  0  0  0  0
   -4.3290    9.1690   -0.8570 C   0  0  0  0  0  0  0  0  0  0  0  0
   -5.0920    7.8790   -0.8170 C   0  0  2  0  0  0  0  0  0  0  0  0
   -5.3460    7.2940   -2.1010 O   0  0  0  0  0  0  0  0  0  0  0  0
   -6.5000    7.7230   -1.3610 C   0  0  0  0  0  0  0  0  0  0  0  0
   -7.2290    8.8740   -1.9810 C   0  0  0  0  0  0  0  0  0  0  0  0
   -7.3430    6.5960   -0.8510 C   0  0  0  0  0  0  0  0  0  0  0  0
   -0.9680   10.2770   -0.0670 C   0  0  1  0  0  0  0  0  0  0  0  0
    0.1170   10.0080    1.0090 C   0  0  0  0  0  0  0  0  0  0  0  0
    1.3470   10.8720    0.6290 C   0  0  0  0  0  0  0  0  0  0  0  0
    0.8200   11.8500   -0.4460 C   0  0  1  0  0  0  0  0  0  0  0  0
    0.1110   12.9860    0.3570 C   0  0  0  0  0  0  0  0  0  0  0  0
    1.8820   12.4230   -1.4400 C   0  0  2  0  0  0  0  0  0  0  0  0
    2.9880   13.2750   -0.7940 C   0  0  0  0  0  0  0  0  0  0  0  0
    2.6960   14.7370   -0.7030 C   0  0  0  0  0  0  0  0  0  0  0  0
    1.7250   15.3830   -1.3740 C   0  0  0  0  0  0  0  0  0  0  0  0
    0.8580   14.6500   -2.4060 C   0  0  1  0  0  0  0  0  0  0  0  0
    0.7510   15.5070   -3.6950 C   0  0  0  0  0  0  0  0  0  0  0  0
    0.2550   16.9220   -3.4170 C   0  0  0  0  0  0  0  0  0  0  0  0
    1.1750   17.6390   -2.4320 C   0  0  2  0  0  0  0  0  0  0  0  0
    2.4470   17.8450   -3.0550 O   0  0  0  0  0  0  0  0  0  0  0  0
    1.3670   16.8640   -1.0980 C   0  0  0  0  0  0  0  0  0  0  0  0
    0.0520   16.9020   -0.2800 C   0  0  0  0  0  0  0  0  0  0  0  0
    2.4250   17.6230   -0.2530 C   0  0  0  0  0  0  0  0  0  0  0  0
    1.2630   13.1430   -2.7060 C   0  0  1  0  0  0  0  0  0  0  0  0
    2.3520   13.0970   -3.8210 C   0  0  0  0  0  0  0  0  0  0  0  0
    0.0110   12.3780   -3.2770 C   0  0  0  0  0  0  0  0  0  0  0  0
   -0.9370   11.7320   -2.2490 C   0  0  0  0  0  0  0  0  0  0  0  0
   -0.1540   10.8970   -1.2300 C   0  0  2  0  0  0  0  0  0  0  0  0
    0.5510    9.7340   -2.0070 C   0  0  0  0  0  0  0  0  0  0  0  0
   -1.9164    7.7140   -2.0832 H   0  0  0  0  0  0  0  0  0  0  0  0
   -2.6818    9.3192   -2.3361 H   0  0  0  0  0  0  0  0  0  0  0  0
   -0.8919    9.1677   -2.3361 H   0  0  0  0  0  0  0  0  0  0  0  0
   -1.3527    8.1574    0.0958 H   0  0  0  0  0  0  0  0  0  0  0  0
   -3.4015    8.3898    0.9176 H   0  0  0  0  0  0  0  0  0  0  0  0
   -3.2637   10.1970    0.6745 H   0  0  0  0  0  0  0  0  0  0  0  0
   -5.0250   10.0008   -0.6737 H   0  0  0  0  0  0  0  0  0  0  0  0
   -3.8594    9.2594   -1.8476 H   0  0  0  0  0  0  0  0  0  0  0  0
   -4.6414    7.6148    0.1511 H   0  0  0  0  0  0  0  0  0  0  0  0
   -7.6374    9.5188   -1.1889 H   0  0  0  0  0  0  0  0  0  0  0  0
   -6.5339    9.4551   -2.6048 H   0  0  0  0  0  0  0  0  0  0  0  0
   -8.0514    8.4939   -2.6048 H   0  0  0  0  0  0  0  0  0  0  0  0
   -7.3378    6.6029    0.2490 H   0  0  0  0  0  0  0  0  0  0  0  0
   -8.3745    6.7165   -1.2136 H   0  0  0  0  0  0  0  0  0  0  0  0
   -6.9361    5.6405   -1.2136 H   0  0  0  0  0  0  0  0  0  0  0  0
   -1.7670   10.9668    0.2425 H   0  0  0  0  0  0  0  0  0  0  0  0
   -0.2557   10.2959    2.0031 H   0  0  0  0  0  0  0  0  0  0  0  0
    0.3803    8.9406    1.0465 H   0  0  0  0  0  0  0  0  0  0  0  0
    1.7204   11.4225    1.5051 H   0  0  0  0  0  0  0  0  0  0  0  0
    2.1871   10.2634    0.2631 H   0  0  0  0  0  0  0  0  0  0  0  0
    0.2269   12.8003    1.4350 H   0  0  0  0  0  0  0  0  0  0  0  0
    0.5652   13.9545    0.1009 H   0  0  0  0  0  0  0  0  0  0  0  0
   -0.9586   13.0035    0.1009 H   0  0  0  0  0  0  0  0  0  0  0  0
    2.3805   11.5120   -1.8027 H   0  0  0  0  0  0  0  0  0  0  0  0
    3.1558   12.8978    0.2256 H   0  0  0  0  0  0  0  0  0  0  0  0
    3.8667   13.1804   -1.4489 H   0  0  0  0  0  0  0  0  0  0  0  0
    3.3280   15.3360   -0.0308 H   0  0  0  0  0  0  0  0  0  0  0  0
   -0.1358   14.5419   -1.9469 H   0  0  0  0  0  0  0  0  0  0  0  0
    1.7452   15.5672   -4.1619 H   0  0  0  0  0  0  0  0  0  0  0  0
    0.0206   15.0216   -4.3590 H   0  0  0  0  0  0  0  0  0  0  0  0
    0.2286   17.4862   -4.3609 H   0  0  0  0  0  0  0  0  0  0  0  0
   -0.7513   16.8612   -2.9770 H   0  0  0  0  0  0  0  0  0  0  0  0
    0.6992   18.5965   -2.1736 H   0  0  0  0  0  0  0  0  0  0  0  0
    2.3060   18.4200   -3.8260 H   0  0  0  0  0  0  0  0  0  0  0  0
    0.2881   16.8952    0.7943 H   0  0  0  0  0  0  0  0  0  0  0  0
   -0.5070   17.8167   -0.5267 H   0  0  0  0  0  0  0  0  0  0  0  0
   -0.5589   16.0211   -0.5267 H   0  0  0  0  0  0  0  0  0  0  0  0
    2.2162   17.4732    0.8166 H   0  0  0  0  0  0  0  0  0  0  0  0
    3.4278   17.2371   -0.4884 H   0  0  0  0  0  0  0  0  0  0  0  0
    2.3807   18.6966   -0.4884 H   0  0  0  0  0  0  0  0  0  0  0  0
    3.3490   13.0549   -3.3582 H   0  0  0  0  0  0  0  0  0  0  0  0
    2.1997   12.2045   -4.4457 H   0  0  0  0  0  0  0  0  0  0  0  0
    2.2755   13.9992   -4.4457 H   0  0  0  0  0  0  0  0  0  0  0  0
   -0.5774   13.0964   -3.8667 H   0  0  0  0  0  0  0  0  0  0  0  0
    0.4255   11.5380   -3.8536 H   0  0  0  0  0  0  0  0  0  0  0  0
   -1.4867   12.5238   -1.7190 H   0  0  0  0  0  0  0  0  0  0  0  0
   -1.6348   11.0701   -2.7828 H   0  0  0  0  0  0  0  0  0  0  0  0
    0.9827    9.0218   -1.2884 H   0  0  0  0  0  0  0  0  0  0  0  0
   -0.1854    9.2161   -2.6391 H   0  0  0  0  0  0  0  0  0  0  0  0
    1.3507   10.1473   -2.6391 H   0  0  0  0  0  0  0  0  0  0  0  0
  1  2  1  0
  2  3  1  0
  3  4  1  0
  4  5  1  0
  5  6  1  0
  6  7  1  0
  7  8  1  0
  7  9  1  0
  2 10  1  0
 10 11  1  0
 11 12  1  0
 12 13  1  0
 13 14  1  1
 13 15  1  0
 15 16  1  0
 16 17  1  0
 17 18  2  0
 18 19  1  0
 19 20  1  0
 20 21  1  0
 21 22  1  0
 22 23  1  0
 22 24  1  0
 24 25  1  0
 24 26  1  0
 19 27  1  0
 27 28  1  6
 27 29  1  0
 29 30  1  0
 30 31  1  0
 31 32  1  6
  7  5  1  0
 31 10  1  0
 31 13  1  0
 27 15  1  0
 24 18  1  0
  1 33  1  0
  1 34  1  0
  1 35  1  0
  2 36  1  1
  3 37  1  0
  3 38  1  0
  4 39  1  0
  4 40  1  0
  5 41  1  1
  8 42  1  0
  8 43  1  0
  8 44  1  0
  9 45  1  0
  9 46  1  0
  9 47  1  0
 10 48  1  1
 11 49  1  0
 11 50  1  0
 12 51  1  0
 12 52  1  0
 14 53  1  0
 14 54  1  0
 14 55  1  0
 15 56  1  6
 16 57  1  0
 16 58  1  0
 17 59  1  0
 19 60  1  1
 20 61  1  0
 20 62  1  0
 21 63  1  0
 21 64  1  0
 22 65  1  1
 23 66  1  0
 25 67  1  0
 25 68  1  0
 25 69  1  0
 26 70  1  0
 26 71  1  0
 26 72  1  0
 28 73  1  0
 28 74  1  0
 28 75  1  0
 29 76  1  0
 29 77  1  0
 30 78  1  0
 30 79  1  0
 32 80  1  0
 32 81  1  0
 32 82  1  0
M  END
>  <meeko>  (1) 
{"is_sidechain": [false], "intermolecular_energy": 2.731, "internal_energy": -0.839}

$$$$
EPH_relaxed_0001_pdb2pqr_Repair_388_r2_0001_out
     RDKit          3D

 82 86  0  0  0  0  0  0  0  0999 V2000
    4.2240   17.5740   -0.6250 C   0  0  0  0  0  0  0  0  0  0  0  0
    2.8640   18.1420   -0.2120 C   0  0  2  0  0  0  0  0  0  0  0  0
    2.9190   18.8400    1.1620 C   0  0  0  0  0  0  0  0  0  0  0  0
    4.2550   18.6630    1.8890 C   0  0  0  0  0  0  0  0  0  0  0  0
    4.2140   19.2400    3.2710 C   0  0  2  0  0  0  0  0  0  0  0  0
    5.2470   20.1940    3.5520 O   0  0  0  0  0  0  0  0  0  0  0  0
    5.2810   18.9800    4.3190 C   0  0  0  0  0  0  0  0  0  0  0  0
    6.4640   18.1100    4.0280 C   0  0  0  0  0  0  0  0  0  0  0  0
    4.9280   19.1670    5.7610 C   0  0  0  0  0  0  0  0  0  0  0  0
    1.8210   17.0310   -0.1900 C   0  0  1  0  0  0  0  0  0  0  0  0
    0.3890   17.5490   -0.4880 C   0  0  0  0  0  0  0  0  0  0  0  0
   -0.3350   16.4330   -1.2840 C   0  0  0  0  0  0  0  0  0  0  0  0
    0.5760   15.1920   -1.1320 C   0  0  1  0  0  0  0  0  0  0  0  0
    0.2180   14.6010    0.2680 C   0  0  0  0  0  0  0  0  0  0  0  0
    0.4690   14.1140   -2.2590 C   0  0  2  0  0  0  0  0  0  0  0  0
   -0.9100   13.4440   -2.3920 C   0  0  0  0  0  0  0  0  0  0  0  0
   -1.0990   12.2070   -1.5780 C   0  0  0  0  0  0  0  0  0  0  0  0
   -0.1150   11.4960   -0.9960 C   0  0  0  0  0  0  0  0  0  0  0  0
    1.3580   11.8660   -1.2100 C   0  0  1  0  0  0  0  0  0  0  0  0
    2.1720   10.5860   -1.5340 C   0  0  0  0  0  0  0  0  0  0  0  0
    1.9920    9.4970   -0.4820 C   0  0  0  0  0  0  0  0  0  0  0  0
    0.5210    9.1140   -0.3390 C   0  0  2  0  0  0  0  0  0  0  0  0
    0.0880    8.4860   -1.5490 O   0  0  0  0  0  0  0  0  0  0  0  0
   -0.3990   10.3260   -0.0210 C   0  0  0  0  0  0  0  0  0  0  0  0
   -0.1300   10.8200    1.4220 C   0  0  0  0  0  0  0  0  0  0  0  0
   -1.8690    9.8280   -0.0430 C   0  0  0  0  0  0  0  0  0  0  0  0
    1.6330   13.0430   -2.2430 C   0  0  1  0  0  0  0  0  0  0  0  0
    1.7290   12.4680   -3.6900 C   0  0  0  0  0  0  0  0  0  0  0  0
    3.0350   13.6860   -1.9270 C   0  0  0  0  0  0  0  0  0  0  0  0
    3.0580   14.8280   -0.8930 C   0  0  0  0  0  0  0  0  0  0  0  0
    1.9890   15.8780   -1.2110 C   0  0  2  0  0  0  0  0  0  0  0  0
    2.3350   16.5060   -2.6040 C   0  0  0  0  0  0  0  0  0  0  0  0
    4.8080   17.3301    0.2747 H   0  0  0  0  0  0  0  0  0  0  0  0
    4.0746   16.6631   -1.2232 H   0  0  0  0  0  0  0  0  0  0  0  0
    4.7668   18.3206   -1.2232 H   0  0  0  0  0  0  0  0  0  0  0  0
    2.5829   18.9009   -0.9570 H   0  0  0  0  0  0  0  0  0  0  0  0
    2.7449   19.9158    1.0123 H   0  0  0  0  0  0  0  0  0  0  0  0
    2.1464   18.3735    1.7909 H   0  0  0  0  0  0  0  0  0  0  0  0
    4.4841   17.5893    1.9575 H   0  0  0  0  0  0  0  0  0  0  0  0
    5.0297   19.1955    1.3177 H   0  0  0  0  0  0  0  0  0  0  0  0
    3.1174   19.1577    3.2983 H   0  0  0  0  0  0  0  0  0  0  0  0
    6.9162   17.7775    4.9740 H   0  0  0  0  0  0  0  0  0  0  0  0
    6.1404   17.2331    3.4481 H   0  0  0  0  0  0  0  0  0  0  0  0
    7.2047   18.6802    3.4481 H   0  0  0  0  0  0  0  0  0  0  0  0
    5.7247   18.7450    6.3912 H   0  0  0  0  0  0  0  0  0  0  0  0
    4.8203   20.2404    5.9759 H   0  0  0  0  0  0  0  0  0  0  0  0
    3.9795   18.6531    5.9759 H   0  0  0  0  0  0  0  0  0  0  0  0
    1.9746   16.6548    0.8322 H   0  0  0  0  0  0  0  0  0  0  0  0
   -0.1444   17.7498    0.4528 H   0  0  0  0  0  0  0  0  0  0  0  0
    0.4203   18.4865   -1.0626 H   0  0  0  0  0  0  0  0  0  0  0  0
   -1.3312   16.2377   -0.8605 H   0  0  0  0  0  0  0  0  0  0  0  0
   -0.4938   16.7076   -2.3373 H   0  0  0  0  0  0  0  0  0  0  0  0
    0.6158   15.2576    1.0558 H   0  0  0  0  0  0  0  0  0  0  0  0
   -0.8752   14.5298    0.3673 H   0  0  0  0  0  0  0  0  0  0  0  0
    0.6612   13.5991    0.3673 H   0  0  0  0  0  0  0  0  0  0  0  0
    0.5990   14.7131   -3.1723 H   0  0  0  0  0  0  0  0  0  0  0  0
   -1.6735   14.1735   -2.0840 H   0  0  0  0  0  0  0  0  0  0  0  0
   -0.9970   13.1327   -3.4434 H   0  0  0  0  0  0  0  0  0  0  0  0
   -2.1292   11.8460   -1.4423 H   0  0  0  0  0  0  0  0  0  0  0  0
    1.7052   12.2972   -0.2595 H   0  0  0  0  0  0  0  0  0  0  0  0
    1.8409   10.1944   -2.5072 H   0  0  0  0  0  0  0  0  0  0  0  0
    3.2366   10.8623   -1.5499 H   0  0  0  0  0  0  0  0  0  0  0  0
    2.5678    8.6088   -0.7812 H   0  0  0  0  0  0  0  0  0  0  0  0
    2.3505    9.8802    0.4848 H   0  0  0  0  0  0  0  0  0  0  0  0
    0.4408    8.4262    0.5157 H   0  0  0  0  0  0  0  0  0  0  0  0
   -0.4690    7.7270   -1.3040 H   0  0  0  0  0  0  0  0  0  0  0  0
   -0.5284   10.0883    2.1403 H   0  0  0  0  0  0  0  0  0  0  0  0
    0.9535   10.9317    1.5753 H   0  0  0  0  0  0  0  0  0  0  0  0
   -0.6240   11.7908    1.5753 H   0  0  0  0  0  0  0  0  0  0  0  0
   -2.2302    9.7056    0.9888 H   0  0  0  0  0  0  0  0  0  0  0  0
   -2.4975   10.5634   -0.5667 H   0  0  0  0  0  0  0  0  0  0  0  0
   -1.9211    8.8621   -0.5667 H   0  0  0  0  0  0  0  0  0  0  0  0
    1.9100   11.3840   -3.6426 H   0  0  0  0  0  0  0  0  0  0  0  0
    0.7865   12.6594   -4.2239 H   0  0  0  0  0  0  0  0  0  0  0  0
    2.5582   12.9552   -4.2239 H   0  0  0  0  0  0  0  0  0  0  0  0
    3.6916   12.8861   -1.5541 H   0  0  0  0  0  0  0  0  0  0  0  0
    3.3602   14.1463   -2.8717 H   0  0  0  0  0  0  0  0  0  0  0  0
    2.8670   14.4117    0.1071 H   0  0  0  0  0  0  0  0  0  0  0  0
    4.0454   15.3117   -0.9269 H   0  0  0  0  0  0  0  0  0  0  0  0
    2.8610   17.4606   -2.4554 H   0  0  0  0  0  0  0  0  0  0  0  0
    2.9801   15.8157   -3.1673 H   0  0  0  0  0  0  0  0  0  0  0  0
    1.4068   16.6826   -3.1673 H   0  0  0  0  0  0  0  0  0  0  0  0
  1  2  1  0
  2  3  1  0
  3  4  1  0
  4  5  1  0
  5  6  1  0
  6  7  1  0
  7  8  1  0
  7  9  1  0
  2 10  1  0
 10 11  1  0
 11 12  1  0
 12 13  1  0
 13 14  1  1
 13 15  1  0
 15 16  1  0
 16 17  1  0
 17 18  2  0
 18 19  1  0
 19 20  1  0
 20 21  1  0
 21 22  1  0
 22 23  1  0
 22 24  1  0
 24 25  1  0
 24 26  1  0
 19 27  1  0
 27 28  1  6
 27 29  1  0
 29 30  1  0
 30 31  1  0
 31 32  1  6
  7  5  1  0
 31 10  1  0
 31 13  1  0
 27 15  1  0
 24 18  1  0
  1 33  1  0
  1 34  1  0
  1 35  1  0
  2 36  1  6
  3 37  1  0
  3 38  1  0
  4 39  1  0
  4 40  1  0
  5 41  1  1
  8 42  1  0
  8 43  1  0
  8 44  1  0
  9 45  1  0
  9 46  1  0
  9 47  1  0
 10 48  1  1
 11 49  1  0
 11 50  1  0
 12 51  1  0
 12 52  1  0
 14 53  1  0
 14 54  1  0
 14 55  1  0
 15 56  1  6
 16 57  1  0
 16 58  1  0
 17 59  1  0
 19 60  1  1
 20 61  1  0
 20 62  1  0
 21 63  1  0
 21 64  1  0
 22 65  1  1
 23 66  1  0
 25 67  1  0
 25 68  1  0
 25 69  1  0
 26 70  1  0
 26 71  1  0
 26 72  1  0
 28 73  1  0
 28 74  1  0
 28 75  1  0
 29 76  1  0
 29 77  1  0
 30 78  1  0
 30 79  1  0
 32 80  1  0
 32 81  1  0
 32 82  1  0
M  END
>  <meeko>  (2) 
{"is_sidechain": [false], "intermolecular_energy": 2.731, "internal_energy": -0.839}

$$$$
EPH_relaxed_0001_pdb2pqr_Repair_388_r2_0001_out
     RDKit          3D

 82 86  0  0  0  0  0  0  0  0999 V2000
    2.3460   17.9500   -2.7320 C   0  0  0  0  0  0  0  0  0  0  0  0
    1.0720   17.5620   -1.9760 C   0  0  2  0  0  0  0  0  0  0  0  0
    1.2680   17.6040   -0.4480 C   0  0  0  0  0  0  0  0  0  0  0  0
    0.9910   18.9770    0.1710 C   0  0  0  0  0  0  0  0  0  0  0  0
   -0.4400   19.1160    0.5940 C   0  0  2  0  0  0  0  0  0  0  0  0
   -1.3500   18.2290   -0.0710 O   0  0  0  0  0  0  0  0  0  0  0  0
   -1.5360   19.6320   -0.3200 C   0  0  0  0  0  0  0  0  0  0  0  0
   -1.2470   20.0430   -1.7300 C   0  0  0  0  0  0  0  0  0  0  0  0
   -2.7780   20.1940    0.2980 C   0  0  0  0  0  0  0  0  0  0  0  0
    0.6160   16.1720   -2.4060 C   0  0  1  0  0  0  0  0  0  0  0  0
    0.6810   15.9710   -3.9430 C   0  0  0  0  0  0  0  0  0  0  0  0
    1.0770   14.4910   -4.1840 C   0  0  0  0  0  0  0  0  0  0  0  0
    0.9040   13.8120   -2.8050 C   0  0  1  0  0  0  0  0  0  0  0  0
   -0.6240   13.5150   -2.6940 C   0  0  0  0  0  0  0  0  0  0  0  0
    1.7610   12.5280   -2.5550 C   0  0  2  0  0  0  0  0  0  0  0  0
    1.4610   11.3490   -3.4970 C   0  0  0  0  0  0  0  0  0  0  0  0
    0.4120   10.4010   -3.0180 C   0  0  0  0  0  0  0  0  0  0  0  0
   -0.0600   10.3280   -1.7600 C   0  0  0  0  0  0  0  0  0  0  0  0
    0.5390   11.1910   -0.6420 C   0  0  1  0  0  0  0  0  0  0  0  0
    0.7920   10.3130    0.6110 C   0  0  0  0  0  0  0  0  0  0  0  0
   -0.4560    9.5610    1.0610 C   0  0  0  0  0  0  0  0  0  0  0  0
   -0.9880    8.6690   -0.0580 C   0  0  2  0  0  0  0  0  0  0  0  0
   -0.0410    7.6270   -0.3070 O   0  0  0  0  0  0  0  0  0  0  0  0
   -1.2720    9.4430   -1.3760 C   0  0  0  0  0  0  0  0  0  0  0  0
   -2.5040   10.3620   -1.1850 C   0  0  0  0  0  0  0  0  0  0  0  0
   -1.6680    8.4070   -2.4620 C   0  0  0  0  0  0  0  0  0  0  0  0
    1.8060   12.0630   -1.0430 C   0  0  1  0  0  0  0  0  0  0  0  0
    3.1070   11.2200   -0.8750 C   0  0  0  0  0  0  0  0  0  0  0  0
    1.9310   13.2760   -0.0470 C   0  0  0  0  0  0  0  0  0  0  0  0
    1.1560   14.5570   -0.4120 C   0  0  0  0  0  0  0  0  0  0  0  0
    1.4180   14.9620   -1.8650 C   0  0  2  0  0  0  0  0  0  0  0  0
    2.9450   15.2880   -2.0030 C   0  0  0  0  0  0  0  0  0  0  0  0
    3.1408   18.1921   -2.0111 H   0  0  0  0  0  0  0  0  0  0  0  0
    2.6678   17.1091   -3.3640 H   0  0  0  0  0  0  0  0  0  0  0  0
    2.1445   18.8275   -3.3640 H   0  0  0  0  0  0  0  0  0  0  0  0
    0.2982   18.3017   -2.2290 H   0  0  0  0  0  0  0  0  0  0  0  0
    0.5857   16.8727    0.0098 H   0  0  0  0  0  0  0  0  0  0  0  0
    2.3253   17.3711   -0.2532 H   0  0  0  0  0  0  0  0  0  0  0  0
    1.6373   19.1080    1.0514 H   0  0  0  0  0  0  0  0  0  0  0  0
    1.1999   19.7442   -0.5891 H   0  0  0  0  0  0  0  0  0  0  0  0
   -0.1362   19.3966    1.6133 H   0  0  0  0  0  0  0  0  0  0  0  0
   -0.6143   20.9428   -1.7273 H   0  0  0  0  0  0  0  0  0  0  0  0
   -0.7225   19.2275   -2.2495 H   0  0  0  0  0  0  0  0  0  0  0  0
   -2.1919   20.2607   -2.2495 H   0  0  0  0  0  0  0  0  0  0  0  0
   -2.6921   20.1551    1.3940 H   0  0  0  0  0  0  0  0  0  0  0  0
   -2.9071   21.2382   -0.0229 H   0  0  0  0  0  0  0  0  0  0  0  0
   -3.6476   19.6017   -0.0229 H   0  0  0  0  0  0  0  0  0  0  0  0
   -0.3987   16.1708   -1.9812 H   0  0  0  0  0  0  0  0  0  0  0  0
   -0.3005   16.1788   -4.3941 H   0  0  0  0  0  0  0  0  0  0  0  0
    1.4112   16.6549   -4.4004 H   0  0  0  0  0  0  0  0  0  0  0  0
    0.4148   14.0283   -4.9306 H   0  0  0  0  0  0  0  0  0  0  0  0
    2.1010   14.3909   -4.5730 H   0  0  0  0  0  0  0  0  0  0  0  0
   -0.9106   13.4593   -1.6335 H   0  0  0  0  0  0  0  0  0  0  0  0
   -1.1906   14.3198   -3.1852 H   0  0  0  0  0  0  0  0  0  0  0  0
   -0.8479   12.5565   -3.1852 H   0  0  0  0  0  0  0  0  0  0  0  0
    2.7746   12.8671   -2.8151 H   0  0  0  0  0  0  0  0  0  0  0  0
    1.1318   11.7606   -4.4625 H   0  0  0  0  0  0  0  0  0  0  0  0
    2.3917   10.7661   -3.5608 H   0  0  0  0  0  0  0  0  0  0  0  0
   -0.0108    9.7032   -3.7557 H   0  0  0  0  0  0  0  0  0  0  0  0
   -0.2149   11.9586   -0.4130 H   0  0  0  0  0  0  0  0  0  0  0  0
    1.5787    9.5811    0.3755 H   0  0  0  0  0  0  0  0  0  0  0  0
    1.0925   10.9814    1.4314 H   0  0  0  0  0  0  0  0  0  0  0  0
   -0.2059    8.9364    1.9313 H   0  0  0  0  0  0  0  0  0  0  0  0
   -1.2322   10.2945    1.3247 H   0  0  0  0  0  0  0  0  0  0  0  0
   -1.9513    8.2579    0.2782 H   0  0  0  0  0  0  0  0  0  0  0  0
   -0.0620    7.4300   -1.2590 H   0  0  0  0  0  0  0  0  0  0  0  0
   -2.6931   10.5031   -0.1106 H   0  0  0  0  0  0  0  0  0  0  0  0
   -2.3099   11.3377   -1.6544 H   0  0  0  0  0  0  0  0  0  0  0  0
   -3.3839    9.8979   -1.6544 H   0  0  0  0  0  0  0  0  0  0  0  0
   -2.0206    7.4845   -1.9775 H   0  0  0  0  0  0  0  0  0  0  0  0
   -2.4710    8.8218   -3.0890 H   0  0  0  0  0  0  0  0  0  0  0  0
   -0.7931    8.1805   -3.0890 H   0  0  0  0  0  0  0  0  0  0  0  0
    3.3191   11.0825    0.1956 H   0  0  0  0  0  0  0  0  0  0  0  0
    2.9714   10.2376   -1.3510 H   0  0  0  0  0  0  0  0  0  0  0  0
    3.9482   11.7451   -1.3510 H   0  0  0  0  0  0  0  0  0  0  0  0
    1.5712   12.9380    0.9360 H   0  0  0  0  0  0  0  0  0  0  0  0
    2.9924   13.5636   -0.0752 H   0  0  0  0  0  0  0  0  0  0  0  0
    0.0793   14.3766   -0.2775 H   0  0  0  0  0  0  0  0  0  0  0  0
    1.4956   15.3711    0.2452 H   0  0  0  0  0  0  0  0  0  0  0  0
    3.3915   15.3833   -1.0022 H   0  0  0  0  0  0  0  0  0  0  0  0
    3.4451   14.4764   -2.5518 H   0  0  0  0  0  0  0  0  0  0  0  0
    3.0700   16.2331   -2.5518 H   0  0  0  0  0  0  0  0  0  0  0  0
  1  2  1  0
  2  3  1  0
  3  4  1  0
  4  5  1  0
  5  6  1  0
  6  7  1  0
  7  8  1  0
  7  9  1  0
  2 10  1  0
 10 11  1  0
 11 12  1  0
 12 13  1  0
 13 14  1  1
 13 15  1  0
 15 16  1  0
 16 17  1  0
 17 18  2  0
 18 19  1  0
 19 20  1  0
 20 21  1  0
 21 22  1  0
 22 23  1  0
 22 24  1  0
 24 25  1  0
 24 26  1  0
 19 27  1  0
 27 28  1  6
 27 29  1  0
 29 30  1  0
 30 31  1  0
 31 32  1  1
  7  5  1  0
 31 10  1  0
 31 13  1  0
 27 15  1  0
 24 18  1  0
  1 33  1  0
  1 34  1  0
  1 35  1  0
  2 36  1  1
  3 37  1  0
  3 38  1  0
  4 39  1  0
  4 40  1  0
  5 41  1  1
  8 42  1  0
  8 43  1  0
  8 44  1  0
  9 45  1  0
  9 46  1  0
  9 47  1  0
 10 48  1  1
 11 49  1  0
 11 50  1  0
 12 51  1  0
 12 52  1  0
 14 53  1  0
 14 54  1  0
 14 55  1  0
 15 56  1  6
 16 57  1  0
 16 58  1  0
 17 59  1  0
 19 60  1  1
 20 61  1  0
 20 62  1  0
 21 63  1  0
 21 64  1  0
 22 65  1  1
 23 66  1  0
 25 67  1  0
 25 68  1  0
 25 69  1  0
 26 70  1  0
 26 71  1  0
 26 72  1  0
 28 73  1  0
 28 74  1  0
 28 75  1  0
 29 76  1  0
 29 77  1  0
 30 78  1  0
 30 79  1  0
 32 80  1  0
 32 81  1  0
 32 82  1  0
M  END
>  <meeko>  (3) 
{"is_sidechain": [false], "intermolecular_energy": 2.731, "internal_energy": -0.839}

$$$$
EPH_relaxed_0001_pdb2pqr_Repair_388_r2_0001_out
     RDKit          3D

 82 86  0  0  0  0  0  0  0  0999 V2000
    0.3970   18.4180   -0.0680 C   0  0  0  0  0  0  0  0  0  0  0  0
    1.4840   17.3590   -0.2700 C   0  0  2  0  0  0  0  0  0  0  0  0
    2.7050   17.9170   -1.0290 C   0  0  0  0  0  0  0  0  0  0  0  0
    3.9360   18.1300   -0.1440 C   0  0  0  0  0  0  0  0  0  0  0  0
    3.5580   18.6070    1.2260 C   0  0  2  0  0  0  0  0  0  0  0  0
    3.7910   20.0020    1.4600 O   0  0  0  0  0  0  0  0  0  0  0  0
    4.5670   19.0880    2.2520 C   0  0  0  0  0  0  0  0  0  0  0  0
    6.0330   19.1150    1.9510 C   0  0  0  0  0  0  0  0  0  0  0  0
    4.1820   19.0670    3.6980 C   0  0  0  0  0  0  0  0  0  0  0  0
    0.9110   16.1600   -1.0150 C   0  0  1  0  0  0  0  0  0  0  0  0
    0.7820   16.4110   -2.5410 C   0  0  0  0  0  0  0  0  0  0  0  0
    1.0720   15.0590   -3.2430 C   0  0  0  0  0  0  0  0  0  0  0  0
    1.0290   14.0120   -2.1050 C   0  0  1  0  0  0  0  0  0  0  0  0
   -0.4880   13.7170   -1.8870 C   0  0  0  0  0  0  0  0  0  0  0  0
    1.8430   12.6990   -2.3440 C   0  0  2  0  0  0  0  0  0  0  0  0
    1.3740   11.8470   -3.5360 C   0  0  0  0  0  0  0  0  0  0  0  0
    0.3420   10.8170   -3.2170 C   0  0  0  0  0  0  0  0  0  0  0  0
    0.0200   10.3890   -1.9820 C   0  0  0  0  0  0  0  0  0  0  0  0
    0.7910   10.8830   -0.7510 C   0  0  1  0  0  0  0  0  0  0  0  0
    1.1470    9.6760    0.1560 C   0  0  0  0  0  0  0  0  0  0  0  0
   -0.0760    8.8440    0.5290 C   0  0  0  0  0  0  0  0  0  0  0  0
   -0.7820    8.3220   -0.7200 C   0  0  2  0  0  0  0  0  0  0  0  0
    0.0760    7.3820   -1.3750 O   0  0  0  0  0  0  0  0  0  0  0  0
   -1.1800    9.4480   -1.7140 C   0  0  0  0  0  0  0  0  0  0  0  0
   -2.3330   10.2900   -1.1120 C   0  0  0  0  0  0  0  0  0  0  0  0
   -1.7540    8.7770   -2.9910 C   0  0  0  0  0  0  0  0  0  0  0  0
    2.0440   11.8150   -1.0460 C   0  0  1  0  0  0  0  0  0  0  0  0
    3.3110   10.9410   -1.2940 C   0  0  0  0  0  0  0  0  0  0  0  0
    2.3480   12.6870    0.2300 C   0  0  0  0  0  0  0  0  0  0  0  0
    1.6010   14.0290    0.3490 C   0  0  0  0  0  0  0  0  0  0  0  0
    1.7090   14.8340   -0.9500 C   0  0  2  0  0  0  0  0  0  0  0  0
    3.2230   15.1640   -1.1840 C   0  0  0  0  0  0  0  0  0  0  0  0
    0.2347   18.5761    1.0084 H   0  0  0  0  0  0  0  0  0  0  0  0
    0.7144   19.3627   -0.5336 H   0  0  0  0  0  0  0  0  0  0  0  0
   -0.5391   18.0761   -0.5336 H   0  0  0  0  0  0  0  0  0  0  0  0
    1.8294   17.0463    0.7264 H   0  0  0  0  0  0  0  0  0  0  0  0
    2.9702   17.2091   -1.8281 H   0  0  0  0  0  0  0  0  0  0  0  0
    2.4164   18.9036   -1.4205 H   0  0  0  0  0  0  0  0  0  0  0  0
    4.4786   17.1775   -0.0527 H   0  0  0  0  0  0  0  0  0  0  0  0
    4.5667   18.8995   -0.6132 H   0  0  0  0  0  0  0  0  0  0  0  0
    2.7415   17.8720    1.2823 H   0  0  0  0  0  0  0  0  0  0  0  0
    6.6006   19.1255    2.8932 H   0  0  0  0  0  0  0  0  0  0  0  0
    6.3044   18.2217    1.3693 H   0  0  0  0  0  0  0  0  0  0  0  0
    6.2713   20.0177    1.3693 H   0  0  0  0  0  0  0  0  0  0  0  0
    5.0883   19.1164    4.3195 H   0  0  0  0  0  0  0  0  0  0  0  0
    3.5385   19.9314    3.9187 H   0  0  0  0  0  0  0  0  0  0  0  0
    3.6363   18.1378    3.9187 H   0  0  0  0  0  0  0  0  0  0  0  0
   -0.0441   16.0504   -0.4804 H   0  0  0  0  0  0  0  0  0  0  0  0
   -0.2347   16.7535   -2.7839 H   0  0  0  0  0  0  0  0  0  0  0  0
    1.4857   17.1880   -2.8743 H   0  0  0  0  0  0  0  0  0  0  0  0
    0.3040   14.8417   -3.9999 H   0  0  0  0  0  0  0  0  0  0  0  0
    2.0367   15.0616   -3.7715 H   0  0  0  0  0  0  0  0  0  0  0  0
   -0.7022   13.6753   -0.8089 H   0  0  0  0  0  0  0  0  0  0  0  0
   -1.0869   14.5155   -2.3492 H   0  0  0  0  0  0  0  0  0  0  0  0
   -0.7441   12.7522   -2.3492 H   0  0  0  0  0  0  0  0  0  0  0  0
    2.8340   13.0852   -2.6247 H   0  0  0  0  0  0  0  0  0  0  0  0
    0.9546   12.5248   -4.2941 H   0  0  0  0  0  0  0  0  0  0  0  0
    2.2596   11.2934   -3.8813 H   0  0  0  0  0  0  0  0  0  0  0  0
   -0.2013   10.3699   -4.0625 H   0  0  0  0  0  0  0  0  0  0  0  0
    0.1095   11.5622   -0.2178 H   0  0  0  0  0  0  0  0  0  0  0  0
    1.8618    9.0325   -0.3778 H   0  0  0  0  0  0  0  0  0  0  0  0
    1.5772   10.0734    1.0871 H   0  0  0  0  0  0  0  0  0  0  0  0
    0.2434    7.9906    1.1452 H   0  0  0  0  0  0  0  0  0  0  0  0
   -0.7769    9.4811    1.0883 H   0  0  0  0  0  0  0  0  0  0  0  0
   -1.7188    7.8455   -0.3953 H   0  0  0  0  0  0  0  0  0  0  0  0
    0.2960    6.6870   -0.7320 H   0  0  0  0  0  0  0  0  0  0  0  0
   -2.2804   10.2516   -0.0139 H   0  0  0  0  0  0  0  0  0  0  0  0
   -2.2389   11.3334   -1.4473 H   0  0  0  0  0  0  0  0  0  0  0  0
   -3.2982    9.8827   -1.4473 H   0  0  0  0  0  0  0  0  0  0  0  0
   -2.4441    7.9703   -2.7027 H   0  0  0  0  0  0  0  0  0  0  0  0
   -2.2948    9.5265   -3.5875 H   0  0  0  0  0  0  0  0  0  0  0  0
   -0.9298    8.3588   -3.5875 H   0  0  0  0  0  0  0  0  0  0  0  0
    3.7448   10.6418   -0.3284 H   0  0  0  0  0  0  0  0  0  0  0  0
    3.0311   10.0430   -1.8643 H   0  0  0  0  0  0  0  0  0  0  0  0
    4.0511   11.5216   -1.8643 H   0  0  0  0  0  0  0  0  0  0  0  0
    2.0917   12.0841    1.1137 H   0  0  0  0  0  0  0  0  0  0  0  0
    3.4114   12.9561    0.1477 H   0  0  0  0  0  0  0  0  0  0  0  0
    0.5401   13.8325    0.5634 H   0  0  0  0  0  0  0  0  0  0  0  0
    2.0565   14.6130    1.1623 H   0  0  0  0  0  0  0  0  0  0  0  0
    3.7285   15.2742   -0.2133 H   0  0  0  0  0  0  0  0  0  0  0  0
    3.6929   14.3472   -1.7515 H   0  0  0  0  0  0  0  0  0  0  0  0
    3.3103   16.1023   -1.7515 H   0  0  0  0  0  0  0  0  0  0  0  0
  1  2  1  0
  2  3  1  0
  3  4  1  0
  4  5  1  0
  5  6  1  0
  6  7  1  0
  7  8  1  0
  7  9  1  0
  2 10  1  0
 10 11  1  0
 11 12  1  0
 12 13  1  0
 13 14  1  1
 13 15  1  0
 15 16  1  0
 16 17  1  0
 17 18  2  0
 18 19  1  0
 19 20  1  0
 20 21  1  0
 21 22  1  0
 22 23  1  0
 22 24  1  0
 24 25  1  0
 24 26  1  0
 19 27  1  0
 27 28  1  6
 27 29  1  0
 29 30  1  0
 30 31  1  0
 31 32  1  6
  7  5  1  0
 31 10  1  0
 31 13  1  0
 27 15  1  0
 24 18  1  0
  1 33  1  0
  1 34  1  0
  1 35  1  0
  2 36  1  1
  3 37  1  0
  3 38  1  0
  4 39  1  0
  4 40  1  0
  5 41  1  1
  8 42  1  0
  8 43  1  0
  8 44  1  0
  9 45  1  0
  9 46  1  0
  9 47  1  0
 10 48  1  1
 11 49  1  0
 11 50  1  0
 12 51  1  0
 12 52  1  0
 14 53  1  0
 14 54  1  0
 14 55  1  0
 15 56  1  6
 16 57  1  0
 16 58  1  0
 17 59  1  0
 19 60  1  1
 20 61  1  0
 20 62  1  0
 21 63  1  0
 21 64  1  0
 22 65  1  1
 23 66  1  0
 25 67  1  0
 25 68  1  0
 25 69  1  0
 26 70  1  0
 26 71  1  0
 26 72  1  0
 28 73  1  0
 28 74  1  0
 28 75  1  0
 29 76  1  0
 29 77  1  0
 30 78  1  0
 30 79  1  0
 32 80  1  0
 32 81  1  0
 32 82  1  0
M  END
>  <meeko>  (4) 
{"is_sidechain": [false], "intermolecular_energy": 2.731, "internal_energy": -0.839}

$$$$
EPH_relaxed_0001_pdb2pqr_Repair_388_r2_0001_out
     RDKit          3D

 82 86  0  0  0  0  0  0  0  0999 V2000
    2.2370   17.9640   -2.5710 C   0  0  0  0  0  0  0  0  0  0  0  0
    0.7140   17.8220   -2.6500 C   0  0  2  0  0  0  0  0  0  0  0  0
    0.0190   18.2980   -1.3590 C   0  0  0  0  0  0  0  0  0  0  0  0
    0.7670   17.9150   -0.0790 C   0  0  0  0  0  0  0  0  0  0  0  0
    1.3510   19.1150    0.6030 C   0  0  2  0  0  0  0  0  0  0  0  0
    2.2840   19.8600   -0.1910 O   0  0  0  0  0  0  0  0  0  0  0  0
    2.8150   19.2300    0.9860 C   0  0  0  0  0  0  0  0  0  0  0  0
    3.7850   18.1260    0.7010 C   0  0  0  0  0  0  0  0  0  0  0  0
    3.1980   20.1940    2.0640 C   0  0  0  0  0  0  0  0  0  0  0  0
    0.3410   16.3730   -2.9380 C   0  0  1  0  0  0  0  0  0  0  0  0
    0.4180   16.0250   -4.4490 C   0  0  0  0  0  0  0  0  0  0  0  0
    0.9020   14.5560   -4.5460 C   0  0  0  0  0  0  0  0  0  0  0  0
    0.7690   14.0050   -3.1060 C   0  0  1  0  0  0  0  0  0  0  0  0
   -0.7390   13.6320   -2.9580 C   0  0  0  0  0  0  0  0  0  0  0  0
    1.7000   12.8050   -2.7360 C   0  0  2  0  0  0  0  0  0  0  0  0
    1.4700   11.5240   -3.5570 C   0  0  0  0  0  0  0  0  0  0  0  0
    0.4790   10.5680   -2.9810 C   0  0  0  0  0  0  0  0  0  0  0  0
    0.0120   10.5900   -1.7190 C   0  0  0  0  0  0  0  0  0  0  0  0
    0.5590   11.5930   -0.6950 C   0  0  1  0  0  0  0  0  0  0  0  0
    0.8630   10.8580    0.6370 C   0  0  0  0  0  0  0  0  0  0  0  0
   -0.3390   10.0820    1.1650 C   0  0  0  0  0  0  0  0  0  0  0  0
   -0.8170    9.0550    0.1420 C   0  0  2  0  0  0  0  0  0  0  0  0
    0.1910    8.0500   -0.0090 O   0  0  0  0  0  0  0  0  0  0  0  0
   -1.1450    9.6780   -1.2440 C   0  0  0  0  0  0  0  0  0  0  0  0
   -2.4300   10.5370   -1.1370 C   0  0  0  0  0  0  0  0  0  0  0  0
   -1.4790    8.5180   -2.2210 C   0  0  0  0  0  0  0  0  0  0  0  0
    1.7720   12.4940   -1.1860 C   0  0  1  0  0  0  0  0  0  0  0  0
    3.1200   11.7500   -0.9440 C   0  0  0  0  0  0  0  0  0  0  0  0
    1.8250   13.8050   -0.3150 C   0  0  0  0  0  0  0  0  0  0  0  0
    0.9750   14.9950   -0.7990 C   0  0  0  0  0  0  0  0  0  0  0  0
    1.2140   15.2710   -2.2860 C   0  0  2  0  0  0  0  0  0  0  0  0
    2.7180   15.6710   -2.4640 C   0  0  0  0  0  0  0  0  0  0  0  0
    2.5483   17.9930   -1.5164 H   0  0  0  0  0  0  0  0  0  0  0  0
    2.7116   17.1062   -3.0699 H   0  0  0  0  0  0  0  0  0  0  0  0
    2.5449   18.8947   -3.0699 H   0  0  0  0  0  0  0  0  0  0  0  0
    0.3640   18.4659   -3.4703 H   0  0  0  0  0  0  0  0  0  0  0  0
   -0.0680   19.3940   -1.3955 H   0  0  0  0  0  0  0  0  0  0  0  0
   -0.9609   17.7998   -1.3195 H   0  0  0  0  0  0  0  0  0  0  0  0
    0.0657   17.4203    0.6090 H   0  0  0  0  0  0  0  0  0  0  0  0
    1.5923   17.2414   -0.3531 H   0  0  0  0  0  0  0  0  0  0  0  0
    0.4243   19.2702    1.1749 H   0  0  0  0  0  0  0  0  0  0  0  0
    4.1529   17.7073    1.6493 H   0  0  0  0  0  0  0  0  0  0  0  0
    3.2827   17.3369    0.1221 H   0  0  0  0  0  0  0  0  0  0  0  0
    4.6321   18.5226    0.1221 H   0  0  0  0  0  0  0  0  0  0  0  0
    3.0159   19.7358    3.0473 H   0  0  0  0  0  0  0  0  0  0  0  0
    4.2645   20.4459    1.9687 H   0  0  0  0  0  0  0  0  0  0  0  0
    2.5952   21.1091    1.9687 H   0  0  0  0  0  0  0  0  0  0  0  0
   -0.6716   16.3544   -2.5088 H   0  0  0  0  0  0  0  0  0  0  0  0
   -0.5743   16.1282   -4.9124 H   0  0  0  0  0  0  0  0  0  0  0  0
    1.1059   16.7028   -4.9756 H   0  0  0  0  0  0  0  0  0  0  0  0
    0.2695   13.9838   -5.2406 H   0  0  0  0  0  0  0  0  0  0  0  0
    1.9307   14.4802   -4.9282 H   0  0  0  0  0  0  0  0  0  0  0  0
   -0.9978   13.5680   -1.8908 H   0  0  0  0  0  0  0  0  0  0  0  0
   -1.3567   14.4044   -3.4394 H   0  0  0  0  0  0  0  0  0  0  0  0
   -0.9254   12.6607   -3.4394 H   0  0  0  0  0  0  0  0  0  0  0  0
    2.6922   13.1757   -3.0328 H   0  0  0  0  0  0  0  0  0  0  0  0
    1.1167   11.8192   -4.5560 H   0  0  0  0  0  0  0  0  0  0  0  0
    2.4334   10.9933   -3.5699 H   0  0  0  0  0  0  0  0  0  0  0  0
    0.0978    9.7780   -3.6447 H   0  0  0  0  0  0  0  0  0  0  0  0
   -0.2385   12.3344   -0.5390 H   0  0  0  0  0  0  0  0  0  0  0  0
    1.6914   10.1539    0.4699 H   0  0  0  0  0  0  0  0  0  0  0  0
    1.1237   11.6198    1.3865 H   0  0  0  0  0  0  0  0  0  0  0  0
   -0.0531    9.5617    2.0910 H   0  0  0  0  0  0  0  0  0  0  0  0
   -1.1571   10.7912    1.3594 H   0  0  0  0  0  0  0  0  0  0  0  0
   -1.7546    8.6231    0.5220 H   0  0  0  0  0  0  0  0  0  0  0  0
    0.8840    8.2270    0.6500 H   0  0  0  0  0  0  0  0  0  0  0  0
   -2.6746   10.7005   -0.0771 H   0  0  0  0  0  0  0  0  0  0  0  0
   -2.2647   11.5069   -1.6290 H   0  0  0  0  0  0  0  0  0  0  0  0
   -3.2630   10.0135   -1.6290 H   0  0  0  0  0  0  0  0  0  0  0  0
   -1.7384    7.6171   -1.6455 H   0  0  0  0  0  0  0  0  0  0  0  0
   -2.3307    8.8061   -2.8547 H   0  0  0  0  0  0  0  0  0  0  0  0
   -0.6045    8.3091   -2.8547 H   0  0  0  0  0  0  0  0  0  0  0  0
    3.2961   11.6528    0.1374 H   0  0  0  0  0  0  0  0  0  0  0  0
    3.0736   10.7497   -1.3993 H   0  0  0  0  0  0  0  0  0  0  0  0
    3.9416   12.3224   -1.3993 H   0  0  0  0  0  0  0  0  0  0  0  0
    1.4867   13.5449    0.6989 H   0  0  0  0  0  0  0  0  0  0  0  0
    2.8673   14.1509   -0.3785 H   0  0  0  0  0  0  0  0  0  0  0  0
   -0.0891   14.7643   -0.6424 H   0  0  0  0  0  0  0  0  0  0  0  0
    1.2640   15.8883   -0.2258 H   0  0  0  0  0  0  0  0  0  0  0  0
    3.1839   15.7949   -1.4753 H   0  0  0  0  0  0  0  0  0  0  0  0
    3.2440   14.8815   -3.0209 H   0  0  0  0  0  0  0  0  0  0  0  0
    2.7823   16.6175   -3.0209 H   0  0  0  0  0  0  0  0  0  0  0  0
  1  2  1  0
  2  3  1  0
  3  4  1  0
  4  5  1  0
  5  6  1  0
  6  7  1  0
  7  8  1  0
  7  9  1  0
  2 10  1  0
 10 11  1  0
 11 12  1  0
 12 13  1  0
 13 14  1  1
 13 15  1  0
 15 16  1  0
 16 17  1  0
 17 18  2  0
 18 19  1  0
 19 20  1  0
 20 21  1  0
 21 22  1  0
 22 23  1  0
 22 24  1  0
 24 25  1  0
 24 26  1  0
 19 27  1  0
 27 28  1  6
 27 29  1  0
 29 30  1  0
 30 31  1  0
 31 32  1  1
  7  5  1  0
 31 10  1  0
 31 13  1  0
 27 15  1  0
 24 18  1  0
  1 33  1  0
  1 34  1  0
  1 35  1  0
  2 36  1  6
  3 37  1  0
  3 38  1  0
  4 39  1  0
  4 40  1  0
  5 41  1  1
  8 42  1  0
  8 43  1  0
  8 44  1  0
  9 45  1  0
  9 46  1  0
  9 47  1  0
 10 48  1  1
 11 49  1  0
 11 50  1  0
 12 51  1  0
 12 52  1  0
 14 53  1  0
 14 54  1  0
 14 55  1  0
 15 56  1  6
 16 57  1  0
 16 58  1  0
 17 59  1  0
 19 60  1  1
 20 61  1  0
 20 62  1  0
 21 63  1  0
 21 64  1  0
 22 65  1  1
 23 66  1  0
 25 67  1  0
 25 68  1  0
 25 69  1  0
 26 70  1  0
 26 71  1  0
 26 72  1  0
 28 73  1  0
 28 74  1  0
 28 75  1  0
 29 76  1  0
 29 77  1  0
 30 78  1  0
 30 79  1  0
 32 80  1  0
 32 81  1  0
 32 82  1  0
M  END
>  <meeko>  (5) 
{"is_sidechain": [false], "intermolecular_energy": 2.731, "internal_energy": -0.839}

$$$$
EPH_relaxed_0001_pdb2pqr_Repair_388_r2_0001_out
     RDKit          3D

 82 86  0  0  0  0  0  0  0  0999 V2000
    3.8290   17.4200    0.3420 C   0  0  0  0  0  0  0  0  0  0  0  0
    2.8500   17.6880   -0.8050 C   0  0  2  0  0  0  0  0  0  0  0  0
    2.2280   19.0960   -0.7200 C   0  0  0  0  0  0  0  0  0  0  0  0
    1.6110   19.4160    0.6440 C   0  0  0  0  0  0  0  0  0  0  0  0
    0.3120   20.1510    0.5060 C   0  0  2  0  0  0  0  0  0  0  0  0
   -0.4930   20.1700    1.6920 O   0  0  0  0  0  0  0  0  0  0  0  0
   -1.0430   19.4710    0.5630 C   0  0  0  0  0  0  0  0  0  0  0  0
   -1.1680   17.9930    0.7630 C   0  0  0  0  0  0  0  0  0  0  0  0
   -2.2160   20.1620   -0.0600 C   0  0  0  0  0  0  0  0  0  0  0  0
    1.7500   16.6320   -0.8070 C   0  0  1  0  0  0  0  0  0  0  0  0
    0.4220   17.1550   -1.4150 C   0  0  0  0  0  0  0  0  0  0  0  0
   -0.2300   15.9610   -2.1590 C   0  0  0  0  0  0  0  0  0  0  0  0
    0.5650   14.7230   -1.6810 C   0  0  1  0  0  0  0  0  0  0  0  0
   -0.0550   14.3600   -0.2940 C   0  0  0  0  0  0  0  0  0  0  0  0
    0.5770   13.4940   -2.6470 C   0  0  2  0  0  0  0  0  0  0  0  0
   -0.8010   12.8650   -2.9190 C   0  0  0  0  0  0  0  0  0  0  0  0
   -1.1980   11.7700   -1.9850 C   0  0  0  0  0  0  0  0  0  0  0  0
   -0.3700   11.1170   -1.1490 C   0  0  0  0  0  0  0  0  0  0  0  0
    1.1390   11.3950   -1.1570 C   0  0  1  0  0  0  0  0  0  0  0  0
    1.9130   10.0510   -1.1540 C   0  0  0  0  0  0  0  0  0  0  0  0
    1.4950    9.1370   -0.0060 C   0  0  0  0  0  0  0  0  0  0  0  0
   -0.0000    8.8370   -0.0650 C   0  0  2  0  0  0  0  0  0  0  0  0
   -0.2670    8.0520   -1.2320 O   0  0  0  0  0  0  0  0  0  0  0  0
   -0.8820   10.1170   -0.0830 C   0  0  0  0  0  0  0  0  0  0  0  0
   -0.8240   10.8090    1.3010 C   0  0  0  0  0  0  0  0  0  0  0  0
   -2.3570    9.6770   -0.2870 C   0  0  0  0  0  0  0  0  0  0  0  0
    1.6530   12.3930   -2.2820 C   0  0  1  0  0  0  0  0  0  0  0  0
    1.9490   11.6070   -3.5960 C   0  0  0  0  0  0  0  0  0  0  0  0
    3.0220   13.0230   -1.8240 C   0  0  0  0  0  0  0  0  0  0  0  0
    2.9460   14.3040   -0.9710 C   0  0  0  0  0  0  0  0  0  0  0  0
    2.0110   15.3350   -1.6120 C   0  0  2  0  0  0  0  0  0  0  0  0
    2.6200   15.7360   -2.9990 C   0  0  0  0  0  0  0  0  0  0  0  0
    3.3143   17.5609    1.3039 H   0  0  0  0  0  0  0  0  0  0  0  0
    4.2008   16.3870    0.2729 H   0  0  0  0  0  0  0  0  0  0  0  0
    4.6751   18.1196    0.2729 H   0  0  0  0  0  0  0  0  0  0  0  0
    3.4188   17.6343   -1.7450 H   0  0  0  0  0  0  0  0  0  0  0  0
    3.0149   19.8362   -0.9272 H   0  0  0  0  0  0  0  0  0  0  0  0
    1.4126   19.1318   -1.4575 H   0  0  0  0  0  0  0  0  0  0  0  0
    1.4323   18.4746    1.1842 H   0  0  0  0  0  0  0  0  0  0  0  0
    2.3124   20.0596    1.1952 H   0  0  0  0  0  0  0  0  0  0  0  0
    0.7565   20.8504   -0.2173 H   0  0  0  0  0  0  0  0  0  0  0  0
   -1.1869   17.7690    1.8398 H   0  0  0  0  0  0  0  0  0  0  0  0
   -2.0994   17.6376    0.2981 H   0  0  0  0  0  0  0  0  0  0  0  0
   -0.3095   17.4862    0.2981 H   0  0  0  0  0  0  0  0  0  0  0  0
   -2.8751   20.5503    0.7305 H   0  0  0  0  0  0  0  0  0  0  0  0
   -1.8615   20.9956   -0.6841 H   0  0  0  0  0  0  0  0  0  0  0  0
   -2.7732   19.4479   -0.6841 H   0  0  0  0  0  0  0  0  0  0  0  0
    1.7099   16.4050    0.2686 H   0  0  0  0  0  0  0  0  0  0  0  0
   -0.2447   17.5137   -0.6169 H   0  0  0  0  0  0  0  0  0  0  0  0
    0.6054   17.9952   -2.1009 H   0  0  0  0  0  0  0  0  0  0  0  0
   -1.2923   15.8684   -1.8890 H   0  0  0  0  0  0  0  0  0  0  0  0
   -0.1969   16.0819   -3.2518 H   0  0  0  0  0  0  0  0  0  0  0  0
    0.5942   14.7401    0.5086 H   0  0  0  0  0  0  0  0  0  0  0  0
   -1.0517   14.8172   -0.2069 H   0  0  0  0  0  0  0  0  0  0  0  0
   -0.1441   13.2671   -0.2069 H   0  0  0  0  0  0  0  0  0  0  0  0
    0.8930   13.9452   -3.5991 H   0  0  0  0  0  0  0  0  0  0  0  0
   -1.5573   13.6608   -2.8507 H   0  0  0  0  0  0  0  0  0  0  0  0
   -0.7340   12.4051   -3.9160 H   0  0  0  0  0  0  0  0  0  0  0  0
   -2.2568   11.4718   -1.9798 H   0  0  0  0  0  0  0  0  0  0  0  0
    1.3517   11.9496   -0.2312 H   0  0  0  0  0  0  0  0  0  0  0  0
    1.7222    9.5322   -2.1050 H   0  0  0  0  0  0  0  0  0  0  0  0
    2.9809   10.2813   -1.0253 H   0  0  0  0  0  0  0  0  0  0  0  0
    2.0548    8.1926   -0.0755 H   0  0  0  0  0  0  0  0  0  0  0  0
    1.7142    9.6447    0.9449 H   0  0  0  0  0  0  0  0  0  0  0  0
   -0.2627    8.2885    0.8516 H   0  0  0  0  0  0  0  0  0  0  0  0
    0.4240    7.3710   -1.2920 H   0  0  0  0  0  0  0  0  0  0  0  0
   -0.8877   10.0491    2.0938 H   0  0  0  0  0  0  0  0  0  0  0  0
    0.1235   11.3597    1.3962 H   0  0  0  0  0  0  0  0  0  0  0  0
   -1.6666   11.5097    1.3962 H   0  0  0  0  0  0  0  0  0  0  0  0
   -2.8359    9.5341    0.6929 H   0  0  0  0  0  0  0  0  0  0  0  0
   -2.8968   10.4532   -0.8492 H   0  0  0  0  0  0  0  0  0  0  0  0
   -2.3833    8.7319   -0.8492 H   0  0  0  0  0  0  0  0  0  0  0  0
    2.3266   10.6044   -3.3464 H   0  0  0  0  0  0  0  0  0  0  0  0
    1.0241   11.5145   -4.1842 H   0  0  0  0  0  0  0  0  0  0  0  0
    2.7051   12.1476   -4.1842 H   0  0  0  0  0  0  0  0  0  0  0  0
    3.5581   12.2631   -1.2364 H   0  0  0  0  0  0  0  0  0  0  0  0
    3.5252   13.3258   -2.7541 H   0  0  0  0  0  0  0  0  0  0  0  0
    2.5676   14.0481    0.0297 H   0  0  0  0  0  0  0  0  0  0  0  0
    3.9537   14.7396   -0.9017 H   0  0  0  0  0  0  0  0  0  0  0  0
    3.5292   16.3347   -2.8410 H   0  0  0  0  0  0  0  0  0  0  0  0
    2.8731   14.8273   -3.5648 H   0  0  0  0  0  0  0  0  0  0  0  0
    1.8852   16.3275   -3.5648 H   0  0  0  0  0  0  0  0  0  0  0  0
  1  2  1  0
  2  3  1  0
  3  4  1  0
  4  5  1  0
  5  6  1  0
  6  7  1  0
  7  8  1  0
  7  9  1  0
  2 10  1  0
 10 11  1  0
 11 12  1  0
 12 13  1  0
 13 14  1  1
 13 15  1  0
 15 16  1  0
 16 17  1  0
 17 18  2  0
 18 19  1  0
 19 20  1  0
 20 21  1  0
 21 22  1  0
 22 23  1  0
 22 24  1  0
 24 25  1  0
 24 26  1  0
 19 27  1  0
 27 28  1  6
 27 29  1  0
 29 30  1  0
 30 31  1  0
 31 32  1  6
  7  5  1  0
 31 10  1  0
 31 13  1  0
 27 15  1  0
 24 18  1  0
  1 33  1  0
  1 34  1  0
  1 35  1  0
  2 36  1  6
  3 37  1  0
  3 38  1  0
  4 39  1  0
  4 40  1  0
  5 41  1  6
  8 42  1  0
  8 43  1  0
  8 44  1  0
  9 45  1  0
  9 46  1  0
  9 47  1  0
 10 48  1  1
 11 49  1  0
 11 50  1  0
 12 51  1  0
 12 52  1  0
 14 53  1  0
 14 54  1  0
 14 55  1  0
 15 56  1  6
 16 57  1  0
 16 58  1  0
 17 59  1  0
 19 60  1  1
 20 61  1  0
 20 62  1  0
 21 63  1  0
 21 64  1  0
 22 65  1  1
 23 66  1  0
 25 67  1  0
 25 68  1  0
 25 69  1  0
 26 70  1  0
 26 71  1  0
 26 72  1  0
 28 73  1  0
 28 74  1  0
 28 75  1  0
 29 76  1  0
 29 77  1  0
 30 78  1  0
 30 79  1  0
 32 80  1  0
 32 81  1  0
 32 82  1  0
M  END
>  <meeko>  (6) 
{"is_sidechain": [false], "intermolecular_energy": 2.731, "internal_energy": -0.839}

$$$$
EPH_relaxed_0001_pdb2pqr_Repair_388_r2_0001_out
     RDKit          3D

 82 86  0  0  0  0  0  0  0  0999 V2000
    0.0040   10.4440   -3.7340 C   0  0  0  0  0  0  0  0  0  0  0  0
    1.0890   10.2600   -2.6700 C   0  0  2  0  0  0  0  0  0  0  0  0
    0.8710    8.9830   -1.8340 C   0  0  0  0  0  0  0  0  0  0  0  0
    0.2330    9.2440   -0.4670 C   0  0  0  0  0  0  0  0  0  0  0  0
   -1.1850    8.7600   -0.4150 C   0  0  2  0  0  0  0  0  0  0  0  0
   -1.8760    8.7960   -1.6710 O   0  0  0  0  0  0  0  0  0  0  0  0
   -2.3850    9.6590   -0.6410 C   0  0  0  0  0  0  0  0  0  0  0  0
   -2.2230   11.1180   -0.9340 C   0  0  0  0  0  0  0  0  0  0  0  0
   -3.7130    9.2310   -0.0970 C   0  0  0  0  0  0  0  0  0  0  0  0
    1.1340   11.4790   -1.7570 C   0  0  1  0  0  0  0  0  0  0  0  0
    2.1930   11.3430   -0.6310 C   0  0  0  0  0  0  0  0  0  0  0  0
    2.7710   12.7610   -0.3870 C   0  0  0  0  0  0  0  0  0  0  0  0
    1.8050   13.7100   -1.1340 C   0  0  1  0  0  0  0  0  0  0  0  0
    0.5970   13.8980   -0.1630 C   0  0  0  0  0  0  0  0  0  0  0  0
    2.3990   15.0830   -1.5890 C   0  0  2  0  0  0  0  0  0  0  0  0
    2.8770   15.9980   -0.4480 C   0  0  0  0  0  0  0  0  0  0  0  0
    1.8490   16.9390    0.0880 C   0  0  0  0  0  0  0  0  0  0  0  0
    0.6830   17.2480   -0.5110 C   0  0  0  0  0  0  0  0  0  0  0  0
    0.3450   16.7020   -1.9040 C   0  0  1  0  0  0  0  0  0  0  0  0
   -0.2000   17.8520   -2.7920 C   0  0  0  0  0  0  0  0  0  0  0  0
   -1.3760   18.5800   -2.1490 C   0  0  0  0  0  0  0  0  0  0  0  0
   -0.9840   19.1580   -0.7910 C   0  0  2  0  0  0  0  0  0  0  0  0
   -0.0190   20.1940   -0.9930 O   0  0  0  0  0  0  0  0  0  0  0  0
   -0.4110   18.0930    0.1850 C   0  0  0  0  0  0  0  0  0  0  0  0
   -1.5450   17.1410    0.6400 C   0  0  0  0  0  0  0  0  0  0  0  0
    0.0750   18.8300    1.4620 C   0  0  0  0  0  0  0  0  0  0  0  0
    1.4940   15.8700   -2.6210 C   0  0  1  0  0  0  0  0  0  0  0  0
    2.4420   16.8330   -3.4000 C   0  0  0  0  0  0  0  0  0  0  0  0
    0.8460   14.9200   -3.6960 C   0  0  0  0  0  0  0  0  0  0  0  0
    0.3880   13.5310   -3.2100 C   0  0  0  0  0  0  0  0  0  0  0  0
    1.4930   12.8400   -2.4050 C   0  0  2  0  0  0  0  0  0  0  0  0
    2.7140   12.6170   -3.3620 C   0  0  0  0  0  0  0  0  0  0  0  0
   -0.9666   10.6086   -3.2433 H   0  0  0  0  0  0  0  0  0  0  0  0
    0.2496   11.3133   -4.3617 H   0  0  0  0  0  0  0  0  0  0  0  0
   -0.0507    9.5423   -4.3617 H   0  0  0  0  0  0  0  0  0  0  0  0
    2.0507   10.1522   -3.1930 H   0  0  0  0  0  0  0  0  0  0  0  0
    0.2148    8.3053   -2.3998 H   0  0  0  0  0  0  0  0  0  0  0  0
    1.8637    8.5473   -1.6476 H   0  0  0  0  0  0  0  0  0  0  0  0
    0.8168    8.7206    0.3046 H   0  0  0  0  0  0  0  0  0  0  0  0
    0.2312   10.3299   -0.2913 H   0  0  0  0  0  0  0  0  0  0  0  0
   -0.9373    8.0484    0.3864 H   0  0  0  0  0  0  0  0  0  0  0  0
   -2.1609   11.6771    0.0113 H   0  0  0  0  0  0  0  0  0  0  0  0
   -1.3019   11.2754   -1.5143 H   0  0  0  0  0  0  0  0  0  0  0  0
   -3.0872   11.4736   -1.5143 H   0  0  0  0  0  0  0  0  0  0  0  0
   -3.6796    9.2418    1.0024 H   0  0  0  0  0  0  0  0  0  0  0  0
   -4.4929    9.9233   -0.4469 H   0  0  0  0  0  0  0  0  0  0  0  0
   -3.9419    8.2136   -0.4469 H   0  0  0  0  0  0  0  0  0  0  0  0
    0.0894   11.4901   -1.4125 H   0  0  0  0  0  0  0  0  0  0  0  0
    1.7225   10.9625    0.2876 H   0  0  0  0  0  0  0  0  0  0  0  0
    2.9863   10.6371   -0.9180 H   0  0  0  0  0  0  0  0  0  0  0  0
    2.7894   12.9931    0.6881 H   0  0  0  0  0  0  0  0  0  0  0  0
    3.8074   12.8559   -0.7431 H   0  0  0  0  0  0  0  0  0  0  0  0
    0.9506   13.8430    0.8772 H   0  0  0  0  0  0  0  0  0  0  0  0
    0.1327   14.8792   -0.3410 H   0  0  0  0  0  0  0  0  0  0  0  0
   -0.1435   13.1043   -0.3410 H   0  0  0  0  0  0  0  0  0  0  0  0
    3.3084   14.7795   -2.1283 H   0  0  0  0  0  0  0  0  0  0  0  0
    3.2176   15.3591    0.3801 H   0  0  0  0  0  0  0  0  0  0  0  0
    3.6721   16.6269   -0.8750 H   0  0  0  0  0  0  0  0  0  0  0  0
    2.0620   17.4206    1.0538 H   0  0  0  0  0  0  0  0  0  0  0  0
   -0.4374   15.9439   -1.7518 H   0  0  0  0  0  0  0  0  0  0  0  0
    0.6094   18.5758   -2.9677 H   0  0  0  0  0  0  0  0  0  0  0  0
   -0.5565   17.4073   -3.7328 H   0  0  0  0  0  0  0  0  0  0  0  0
   -1.6971   19.3989   -2.8096 H   0  0  0  0  0  0  0  0  0  0  0  0
   -2.1953   17.8611   -2.0011 H   0  0  0  0  0  0  0  0  0  0  0  0
   -1.8982   19.5524   -0.3233 H   0  0  0  0  0  0  0  0  0  0  0  0
    0.7900   19.9400   -0.5180 H   0  0  0  0  0  0  0  0  0  0  0  0
   -1.5801   17.1115    1.7390 H   0  0  0  0  0  0  0  0  0  0  0  0
   -2.5076   17.5056    0.2520 H   0  0  0  0  0  0  0  0  0  0  0  0
   -1.3526   16.1298    0.2520 H   0  0  0  0  0  0  0  0  0  0  0  0
   -0.2798   18.2919    2.3534 H   0  0  0  0  0  0  0  0  0  0  0  0
    1.1744   18.8657    1.4687 H   0  0  0  0  0  0  0  0  0  0  0  0
   -0.3252   19.8546    1.4687 H   0  0  0  0  0  0  0  0  0  0  0  0
    3.0282   17.4285   -2.6846 H   0  0  0  0  0  0  0  0  0  0  0  0
    3.1232   16.2447   -4.0324 H   0  0  0  0  0  0  0  0  0  0  0  0
    1.8431   17.5049   -4.0324 H   0  0  0  0  0  0  0  0  0  0  0  0
   -0.0342   15.4353   -4.1081 H   0  0  0  0  0  0  0  0  0  0  0  0
    1.6463   14.7208   -4.4239 H   0  0  0  0  0  0  0  0  0  0  0  0
   -0.5015   13.6477   -2.5735 H   0  0  0  0  0  0  0  0  0  0  0  0
    0.1543   12.9115   -4.0884 H   0  0  0  0  0  0  0  0  0  0  0  0
    3.6226   12.4511   -2.7646 H   0  0  0  0  0  0  0  0  0  0  0  0
    2.5268   11.7382   -3.9965 H   0  0  0  0  0  0  0  0  0  0  0  0
    2.8495   13.5052   -3.9965 H   0  0  0  0  0  0  0  0  0  0  0  0
  1  2  1  0
  2  3  1  0
  3  4  1  0
  4  5  1  0
  5  6  1  0
  6  7  1  0
  7  8  1  0
  7  9  1  0
  2 10  1  0
 10 11  1  0
 11 12  1  0
 12 13  1  0
 13 14  1  1
 13 15  1  0
 15 16  1  0
 16 17  1  0
 17 18  2  0
 18 19  1  0
 19 20  1  0
 20 21  1  0
 21 22  1  0
 22 23  1  0
 22 24  1  0
 24 25  1  0
 24 26  1  0
 19 27  1  0
 27 28  1  6
 27 29  1  0
 29 30  1  0
 30 31  1  0
 31 32  1  6
  7  5  1  0
 31 10  1  0
 31 13  1  0
 27 15  1  0
 24 18  1  0
  1 33  1  0
  1 34  1  0
  1 35  1  0
  2 36  1  6
  3 37  1  0
  3 38  1  0
  4 39  1  0
  4 40  1  0
  5 41  1  1
  8 42  1  0
  8 43  1  0
  8 44  1  0
  9 45  1  0
  9 46  1  0
  9 47  1  0
 10 48  1  1
 11 49  1  0
 11 50  1  0
 12 51  1  0
 12 52  1  0
 14 53  1  0
 14 54  1  0
 14 55  1  0
 15 56  1  6
 16 57  1  0
 16 58  1  0
 17 59  1  0
 19 60  1  1
 20 61  1  0
 20 62  1  0
 21 63  1  0
 21 64  1  0
 22 65  1  1
 23 66  1  0
 25 67  1  0
 25 68  1  0
 25 69  1  0
 26 70  1  0
 26 71  1  0
 26 72  1  0
 28 73  1  0
 28 74  1  0
 28 75  1  0
 29 76  1  0
 29 77  1  0
 30 78  1  0
 30 79  1  0
 32 80  1  0
 32 81  1  0
 32 82  1  0
M  END
>  <meeko>  (7) 
{"is_sidechain": [false], "intermolecular_energy": 2.731, "internal_energy": -0.839}

$$$$
EPH_relaxed_0001_pdb2pqr_Repair_388_r2_0001_out
     RDKit          3D

 82 86  0  0  0  0  0  0  0  0999 V2000
    0.4410    8.8350   -2.3810 C   0  0  0  0  0  0  0  0  0  0  0  0
    1.1830    9.9820   -3.0730 C   0  0  2  0  0  0  0  0  0  0  0  0
    2.6840   10.0010   -2.7190 C   0  0  0  0  0  0  0  0  0  0  0  0
    3.5640   10.6300   -3.8020 C   0  0  0  0  0  0  0  0  0  0  0  0
    4.9650   10.8500   -3.3180 C   0  0  2  0  0  0  0  0  0  0  0  0
    5.5830   12.0510   -3.8000 O   0  0  0  0  0  0  0  0  0  0  0  0
    6.1800   10.8150   -4.2270 C   0  0  0  0  0  0  0  0  0  0  0  0
    6.0480   10.5520   -5.6950 C   0  0  0  0  0  0  0  0  0  0  0  0
    7.5220   10.5520   -3.6190 C   0  0  0  0  0  0  0  0  0  0  0  0
    0.5440   11.3150   -2.7000 C   0  0  1  0  0  0  0  0  0  0  0  0
   -0.8300   11.1420   -1.9980 C   0  0  0  0  0  0  0  0  0  0  0  0
   -0.9430   12.2800   -0.9510 C   0  0  0  0  0  0  0  0  0  0  0  0
    0.2040   13.2550   -1.3090 C   0  0  1  0  0  0  0  0  0  0  0  0
   -0.3530   14.1130   -2.4880 C   0  0  0  0  0  0  0  0  0  0  0  0
    0.7380   14.1510   -0.1450 C   0  0  2  0  0  0  0  0  0  0  0  0
   -0.2910   15.1250    0.4540 C   0  0  0  0  0  0  0  0  0  0  0  0
   -0.3410   16.4730   -0.1850 C   0  0  0  0  0  0  0  0  0  0  0  0
    0.5960   16.9850   -1.0040 C   0  0  0  0  0  0  0  0  0  0  0  0
    1.8980   16.2230   -1.2860 C   0  0  1  0  0  0  0  0  0  0  0  0
    3.1030   17.1920   -1.1600 C   0  0  0  0  0  0  0  0  0  0  0  0
    2.9510   18.4310   -2.0370 C   0  0  0  0  0  0  0  0  0  0  0  0
    1.6750   19.1930   -1.6870 C   0  0  2  0  0  0  0  0  0  0  0  0
    1.8070   19.7310   -0.3680 O   0  0  0  0  0  0  0  0  0  0  0  0
    0.3950   18.3160   -1.7700 C   0  0  0  0  0  0  0  0  0  0  0  0
    0.0860   17.9830   -3.2510 C   0  0  0  0  0  0  0  0  0  0  0  0
   -0.7990   19.1650   -1.2580 C   0  0  0  0  0  0  0  0  0  0  0  0
    2.1060   14.8790   -0.4630 C   0  0  1  0  0  0  0  0  0  0  0  0
    2.7730   15.1950    0.9110 C   0  0  0  0  0  0  0  0  0  0  0  0
    3.1120   13.9510   -1.2410 C   0  0  0  0  0  0  0  0  0  0  0  0
    2.5090   13.0030   -2.2950 C   0  0  0  0  0  0  0  0  0  0  0  0
    1.3210   12.2270   -1.7190 C   0  0  2  0  0  0  0  0  0  0  0  0
    1.8540   11.3370   -0.5450 C   0  0  0  0  0  0  0  0  0  0  0  0
    0.5179    8.9539   -1.2901 H   0  0  0  0  0  0  0  0  0  0  0  0
   -0.6180    8.8515   -2.6779 H   0  0  0  0  0  0  0  0  0  0  0  0
    0.8902    7.8758   -2.6779 H   0  0  0  0  0  0  0  0  0  0  0  0
    1.1015    9.8207   -4.1581 H   0  0  0  0  0  0  0  0  0  0  0  0
    2.8143   10.5744   -1.7894 H   0  0  0  0  0  0  0  0  0  0  0  0
    3.0027    8.9534   -2.6143 H   0  0  0  0  0  0  0  0  0  0  0  0
    3.5891    9.9606   -4.6745 H   0  0  0  0  0  0  0  0  0  0  0  0
    3.1352   11.6075   -4.0679 H   0  0  0  0  0  0  0  0  0  0  0  0
    4.7408   10.3452   -2.3667 H   0  0  0  0  0  0  0  0  0  0  0  0
    5.5595    9.5788   -5.8507 H   0  0  0  0  0  0  0  0  0  0  0  0
    5.4410   11.3449   -6.1564 H   0  0  0  0  0  0  0  0  0  0  0  0
    7.0465   10.5391   -6.1564 H   0  0  0  0  0  0  0  0  0  0  0  0
    7.4373   10.5686   -2.5224 H   0  0  0  0  0  0  0  0  0  0  0  0
    7.8848    9.5657   -3.9439 H   0  0  0  0  0  0  0  0  0  0  0  0
    8.2303   11.3284   -3.9439 H   0  0  0  0  0  0  0  0  0  0  0  0
    0.5015   11.7840   -3.6941 H   0  0  0  0  0  0  0  0  0  0  0  0
   -1.6440   11.2216   -2.7336 H   0  0  0  0  0  0  0  0  0  0  0  0
   -0.9075   10.1549   -1.5188 H   0  0  0  0  0  0  0  0  0  0  0  0
   -1.9183   12.7829   -1.0278 H   0  0  0  0  0  0  0  0  0  0  0  0
   -0.8664   11.9066    0.0809 H   0  0  0  0  0  0  0  0  0  0  0  0
   -0.9104   14.9716   -2.0853 H   0  0  0  0  0  0  0  0  0  0  0  0
    0.4827   14.4751   -3.1048 H   0  0  0  0  0  0  0  0  0  0  0  0
   -1.0239   13.4970   -3.1048 H   0  0  0  0  0  0  0  0  0  0  0  0
    0.9449   13.4132    0.6442 H   0  0  0  0  0  0  0  0  0  0  0  0
   -1.2868   14.6673    0.3601 H   0  0  0  0  0  0  0  0  0  0  0  0
    0.0203   15.2936    1.4955 H   0  0  0  0  0  0  0  0  0  0  0  0
   -1.2178   17.1009    0.0319 H   0  0  0  0  0  0  0  0  0  0  0  0
    1.8197   15.8586   -2.3209 H   0  0  0  0  0  0  0  0  0  0  0  0
    3.1908   17.5111   -0.1110 H   0  0  0  0  0  0  0  0  0  0  0  0
    4.0014   16.6533   -1.4957 H   0  0  0  0  0  0  0  0  0  0  0  0
    3.8180   19.0902   -1.8825 H   0  0  0  0  0  0  0  0  0  0  0  0
    2.8930   18.1125   -3.0883 H   0  0  0  0  0  0  0  0  0  0  0  0
    1.5536   19.9935   -2.4316 H   0  0  0  0  0  0  0  0  0  0  0  0
    2.6830   20.1470   -0.3050 H   0  0  0  0  0  0  0  0  0  0  0  0
   -0.6616   17.1774   -3.2974 H   0  0  0  0  0  0  0  0  0  0  0  0
   -0.3083   18.8785   -3.7536 H   0  0  0  0  0  0  0  0  0  0  0  0
    1.0084   17.6567   -3.7536 H   0  0  0  0  0  0  0  0  0  0  0  0
   -0.8023   19.1673   -0.1580 H   0  0  0  0  0  0  0  0  0  0  0  0
   -0.7000   20.1967   -1.6265 H   0  0  0  0  0  0  0  0  0  0  0  0
   -1.7410   18.7328   -1.6265 H   0  0  0  0  0  0  0  0  0  0  0  0
    2.1042   14.8781    1.7248 H   0  0  0  0  0  0  0  0  0  0  0  0
    3.7272   14.6532    0.9886 H   0  0  0  0  0  0  0  0  0  0  0  0
    2.9581   16.2765    0.9886 H   0  0  0  0  0  0  0  0  0  0  0  0
    3.8362   14.6012   -1.7537 H   0  0  0  0  0  0  0  0  0  0  0  0
    3.5463   13.2914   -0.4753 H   0  0  0  0  0  0  0  0  0  0  0  0
    2.1683   13.5943   -3.1577 H   0  0  0  0  0  0  0  0  0  0  0  0
    3.2820   12.2833   -2.6024 H   0  0  0  0  0  0  0  0  0  0  0  0
    1.5795   11.7954    0.4165 H   0  0  0  0  0  0  0  0  0  0  0  0
    1.4079   10.3339   -0.6136 H   0  0  0  0  0  0  0  0  0  0  0  0
    2.9489   11.2568   -0.6136 H   0  0  0  0  0  0  0  0  0  0  0  0
  1  2  1  0
  2  3  1  0
  3  4  1  0
  4  5  1  0
  5  6  1  0
  6  7  1  0
  7  8  1  0
  7  9  1  0
  2 10  1  0
 10 11  1  0
 11 12  1  0
 12 13  1  0
 13 14  1  6
 13 15  1  0
 15 16  1  0
 16 17  1  0
 17 18  2  0
 18 19  1  0
 19 20  1  0
 20 21  1  0
 21 22  1  0
 22 23  1  0
 22 24  1  0
 24 25  1  0
 24 26  1  0
 19 27  1  0
 27 28  1  1
 27 29  1  0
 29 30  1  0
 30 31  1  0
 31 32  1  1
  7  5  1  0
 31 10  1  0
 31 13  1  0
 27 15  1  0
 24 18  1  0
  1 33  1  0
  1 34  1  0
  1 35  1  0
  2 36  1  6
  3 37  1  0
  3 38  1  0
  4 39  1  0
  4 40  1  0
  5 41  1  1
  8 42  1  0
  8 43  1  0
  8 44  1  0
  9 45  1  0
  9 46  1  0
  9 47  1  0
 10 48  1  6
 11 49  1  0
 11 50  1  0
 12 51  1  0
 12 52  1  0
 14 53  1  0
 14 54  1  0
 14 55  1  0
 15 56  1  1
 16 57  1  0
 16 58  1  0
 17 59  1  0
 19 60  1  6
 20 61  1  0
 20 62  1  0
 21 63  1  0
 21 64  1  0
 22 65  1  6
 23 66  1  0
 25 67  1  0
 25 68  1  0
 25 69  1  0
 26 70  1  0
 26 71  1  0
 26 72  1  0
 28 73  1  0
 28 74  1  0
 28 75  1  0
 29 76  1  0
 29 77  1  0
 30 78  1  0
 30 79  1  0
 32 80  1  0
 32 81  1  0
 32 82  1  0
M  END
>  <meeko>  (8) 
{"is_sidechain": [false], "intermolecular_energy": 2.731, "internal_energy": -0.839}

$$$$
EPH_relaxed_0001_pdb2pqr_Repair_388_r2_0001_out
     RDKit          3D

 82 86  0  0  0  0  0  0  0  0999 V2000
    3.1160   18.3680   -3.8380 C   0  0  0  0  0  0  0  0  0  0  0  0
    2.0510   18.2170   -2.7480 C   0  0  2  0  0  0  0  0  0  0  0  0
    2.0880   19.3780   -1.7350 C   0  0  0  0  0  0  0  0  0  0  0  0
    0.7910   20.1910   -1.6830 C   0  0  0  0  0  0  0  0  0  0  0  0
   -0.3310   19.4070   -1.0720 C   0  0  2  0  0  0  0  0  0  0  0  0
   -1.2530   20.1850   -0.2990 O   0  0  0  0  0  0  0  0  0  0  0  0
   -0.4920   19.2030    0.4230 C   0  0  0  0  0  0  0  0  0  0  0  0
    0.4820   19.7850    1.3990 C   0  0  0  0  0  0  0  0  0  0  0  0
   -1.3060   18.0430    0.9030 C   0  0  0  0  0  0  0  0  0  0  0  0
    2.2330   16.8880   -2.0240 C   0  0  1  0  0  0  0  0  0  0  0  0
    2.5520   17.0680   -0.5160 C   0  0  0  0  0  0  0  0  0  0  0  0
    1.8690   15.8920    0.2290 C   0  0  0  0  0  0  0  0  0  0  0  0
    1.4680   14.9020   -0.8900 C   0  0  1  0  0  0  0  0  0  0  0  0
    2.7730   14.1080   -1.2110 C   0  0  0  0  0  0  0  0  0  0  0  0
    0.2730   13.9450   -0.5700 C   0  0  2  0  0  0  0  0  0  0  0  0
    0.5100   12.9750    0.6010 C   0  0  0  0  0  0  0  0  0  0  0  0
    1.1000   11.6560    0.2270 C   0  0  0  0  0  0  0  0  0  0  0  0
    1.1650   11.1540   -1.0200 C   0  0  0  0  0  0  0  0  0  0  0  0
    0.5220   11.8910   -2.2010 C   0  0  1  0  0  0  0  0  0  0  0  0
   -0.2910   10.8860   -3.0590 C   0  0  0  0  0  0  0  0  0  0  0  0
    0.5430    9.6880   -3.5030 C   0  0  0  0  0  0  0  0  0  0  0  0
    1.1180    8.9470   -2.2990 C   0  0  2  0  0  0  0  0  0  0  0  0
    0.0410    8.3520   -1.5670 O   0  0  0  0  0  0  0  0  0  0  0  0
    1.9490    9.8610   -1.3560 C   0  0  0  0  0  0  0  0  0  0  0  0
    3.2720   10.2620   -2.0540 C   0  0  0  0  0  0  0  0  0  0  0  0
    2.3510    9.0240   -0.1120 C   0  0  0  0  0  0  0  0  0  0  0  0
   -0.3110   13.1940   -1.8340 C   0  0  1  0  0  0  0  0  0  0  0  0
   -1.7790   12.8040   -1.4810 C   0  0  0  0  0  0  0  0  0  0  0  0
   -0.3920   14.1260   -3.1000 C   0  0  0  0  0  0  0  0  0  0  0  0
    0.7580   15.1320   -3.2970 C   0  0  0  0  0  0  0  0  0  0  0  0
    1.0270   15.9160   -2.0080 C   0  0  2  0  0  0  0  0  0  0  0  0
   -0.2610   16.7420   -1.6730 C   0  0  0  0  0  0  0  0  0  0  0  0
    4.1019   18.5078   -3.3705 H   0  0  0  0  0  0  0  0  0  0  0  0
    3.1316   17.4631   -4.4632 H   0  0  0  0  0  0  0  0  0  0  0  0
    2.8795   19.2416   -4.4632 H   0  0  0  0  0  0  0  0  0  0  0  0
    1.0678   18.2404   -3.2408 H   0  0  0  0  0  0  0  0  0  0  0  0
    2.2765   18.9605   -0.7349 H   0  0  0  0  0  0  0  0  0  0  0  0
    2.8844   20.0635   -2.0605 H   0  0  0  0  0  0  0  0  0  0  0  0
    0.9617   21.0964   -1.0821 H   0  0  0  0  0  0  0  0  0  0  0  0
    0.5070   20.4495   -2.7138 H   0  0  0  0  0  0  0  0  0  0  0  0
   -0.3302   18.7025   -1.9168 H   0  0  0  0  0  0  0  0  0  0  0  0
    0.1401   19.5807    2.4243 H   0  0  0  0  0  0  0  0  0  0  0  0
    1.4716   19.3300    1.2450 H   0  0  0  0  0  0  0  0  0  0  0  0
    0.5502   20.8720    1.2450 H   0  0  0  0  0  0  0  0  0  0  0  0
   -1.3144   18.0311    2.0029 H   0  0  0  0  0  0  0  0  0  0  0  0
   -2.3362   18.1384    0.5295 H   0  0  0  0  0  0  0  0  0  0  0  0
   -0.8658   17.1066    0.5295 H   0  0  0  0  0  0  0  0  0  0  0  0
    3.0512   16.4621   -2.6233 H   0  0  0  0  0  0  0  0  0  0  0  0
    3.6394   17.0394   -0.3528 H   0  0  0  0  0  0  0  0  0  0  0  0
    2.1835   18.0366   -0.1471 H   0  0  0  0  0  0  0  0  0  0  0  0
    2.5694   15.4192    0.9332 H   0  0  0  0  0  0  0  0  0  0  0  0
    1.0047   16.2210    0.8246 H   0  0  0  0  0  0  0  0  0  0  0  0
    3.2617   13.8106   -0.2715 H   0  0  0  0  0  0  0  0  0  0  0  0
    2.5216   13.2096   -1.7939 H   0  0  0  0  0  0  0  0  0  0  0  0
    3.4553   14.7442   -1.7939 H   0  0  0  0  0  0  0  0  0  0  0  0
   -0.5043   14.6434   -0.2264 H   0  0  0  0  0  0  0  0  0  0  0  0
    1.1917   13.4625    1.3135 H   0  0  0  0  0  0  0  0  0  0  0  0
   -0.4830   12.7561    1.0205 H   0  0  0  0  0  0  0  0  0  0  0  0
    1.5169   11.0424    1.0392 H   0  0  0  0  0  0  0  0  0  0  0  0
    1.3538   12.2993   -2.7938 H   0  0  0  0  0  0  0  0  0  0  0  0
   -1.1421   10.5224   -2.4645 H   0  0  0  0  0  0  0  0  0  0  0  0
   -0.6259   11.4138   -3.9641 H   0  0  0  0  0  0  0  0  0  0  0  0
   -0.0934    8.9999   -4.0788 H   0  0  0  0  0  0  0  0  0  0  0  0
    1.3764   10.0508   -4.1226 H   0  0  0  0  0  0  0  0  0  0  0  0
    1.8092    8.1817   -2.6818 H   0  0  0  0  0  0  0  0  0  0  0  0
    0.4210    7.6730   -0.9840 H   0  0  0  0  0  0  0  0  0  0  0  0
    4.0326   10.4925   -1.2935 H   0  0  0  0  0  0  0  0  0  0  0  0
    3.6221    9.4296   -2.6822 H   0  0  0  0  0  0  0  0  0  0  0  0
    3.1011   11.1487   -2.6822 H   0  0  0  0  0  0  0  0  0  0  0  0
    2.0861    9.5755    0.8022 H   0  0  0  0  0  0  0  0  0  0  0  0
    1.8163    8.0629   -0.1283 H   0  0  0  0  0  0  0  0  0  0  0  0
    3.4355    8.8406   -0.1283 H   0  0  0  0  0  0  0  0  0  0  0  0
   -1.8973   12.7726   -0.3878 H   0  0  0  0  0  0  0  0  0  0  0  0
   -2.4682   13.5502   -1.9031 H   0  0  0  0  0  0  0  0  0  0  0  0
   -2.0070   11.8141   -1.9031 H   0  0  0  0  0  0  0  0  0  0  0  0
   -0.4233   13.4783   -3.9885 H   0  0  0  0  0  0  0  0  0  0  0  0
   -1.2902   14.7422   -2.9466 H   0  0  0  0  0  0  0  0  0  0  0  0
    1.6690   14.5858   -3.5829 H   0  0  0  0  0  0  0  0  0  0  0  0
    0.4716   15.8423   -4.0866 H   0  0  0  0  0  0  0  0  0  0  0  0
   -0.3758   16.8156   -0.5815 H   0  0  0  0  0  0  0  0  0  0  0  0
   -0.1710   17.7513   -2.1011 H   0  0  0  0  0  0  0  0  0  0  0  0
   -1.1407   16.2392   -2.1011 H   0  0  0  0  0  0  0  0  0  0  0  0
  1  2  1  0
  2  3  1  0
  3  4  1  0
  4  5  1  0
  5  6  1  0
  6  7  1  0
  7  8  1  0
  7  9  1  0
  2 10  1  0
 10 11  1  0
 11 12  1  0
 12 13  1  0
 13 14  1  6
 13 15  1  0
 15 16  1  0
 16 17  1  0
 17 18  2  0
 18 19  1  0
 19 20  1  0
 20 21  1  0
 21 22  1  0
 22 23  1  0
 22 24  1  0
 24 25  1  0
 24 26  1  0
 19 27  1  0
 27 28  1  1
 27 29  1  0
 29 30  1  0
 30 31  1  0
 31 32  1  1
  7  5  1  0
 31 10  1  0
 31 13  1  0
 27 15  1  0
 24 18  1  0
  1 33  1  0
  1 34  1  0
  1 35  1  0
  2 36  1  6
  3 37  1  0
  3 38  1  0
  4 39  1  0
  4 40  1  0
  5 41  1  6
  8 42  1  0
  8 43  1  0
  8 44  1  0
  9 45  1  0
  9 46  1  0
  9 47  1  0
 10 48  1  6
 11 49  1  0
 11 50  1  0
 12 51  1  0
 12 52  1  0
 14 53  1  0
 14 54  1  0
 14 55  1  0
 15 56  1  1
 16 57  1  0
 16 58  1  0
 17 59  1  0
 19 60  1  6
 20 61  1  0
 20 62  1  0
 21 63  1  0
 21 64  1  0
 22 65  1  6
 23 66  1  0
 25 67  1  0
 25 68  1  0
 25 69  1  0
 26 70  1  0
 26 71  1  0
 26 72  1  0
 28 73  1  0
 28 74  1  0
 28 75  1  0
 29 76  1  0
 29 77  1  0
 30 78  1  0
 30 79  1  0
 32 80  1  0
 32 81  1  0
 32 82  1  0
M  END
>  <meeko>  (9) 
{"is_sidechain": [false], "intermolecular_energy": 2.731, "internal_energy": -0.839}

$$$$
EPH_relaxed_0001_pdb2pqr_Repair_388_r2_0001_out
     RDKit          3D

 82 86  0  0  0  0  0  0  0  0999 V2000
   -0.8910   16.3620   -5.8460 C   0  0  0  0  0  0  0  0  0  0  0  0
    0.2080   15.6710   -6.6580 C   0  0  2  0  0  0  0  0  0  0  0  0
   -0.1870   15.4960   -8.1380 C   0  0  0  0  0  0  0  0  0  0  0  0
    0.4640   16.5170   -9.0740 C   0  0  0  0  0  0  0  0  0  0  0  0
    1.8640   16.1230   -9.4370 C   0  0  2  0  0  0  0  0  0  0  0  0
    2.3440   16.6840  -10.6660 O   0  0  0  0  0  0  0  0  0  0  0  0
    2.2050   15.2540  -10.6330 C   0  0  0  0  0  0  0  0  0  0  0  0
    1.1400   14.7250  -11.5420 C   0  0  0  0  0  0  0  0  0  0  0  0
    3.5100   14.5210  -10.6360 C   0  0  0  0  0  0  0  0  0  0  0  0
    0.5350   14.3160   -6.0420 C   0  0  1  0  0  0  0  0  0  0  0  0
    1.7950   13.6620   -6.6710 C   0  0  0  0  0  0  0  0  0  0  0  0
    2.5150   12.8940   -5.5330 C   0  0  0  0  0  0  0  0  0  0  0  0
    1.4860   12.8510   -4.3790 C   0  0  1  0  0  0  0  0  0  0  0  0
    0.5280   11.6730   -4.7390 C   0  0  0  0  0  0  0  0  0  0  0  0
    2.0710   12.6990   -2.9370 C   0  0  2  0  0  0  0  0  0  0  0  0
    2.8450   11.3940   -2.6810 C   0  0  0  0  0  0  0  0  0  0  0  0
    2.0260   10.2580   -2.1660 C   0  0  0  0  0  0  0  0  0  0  0  0
    0.7870   10.3570   -1.6490 C   0  0  0  0  0  0  0  0  0  0  0  0
    0.1230   11.7270   -1.4540 C   0  0  1  0  0  0  0  0  0  0  0  0
   -0.5100   11.7980   -0.0390 C   0  0  0  0  0  0  0  0  0  0  0  0
   -1.4660   10.6420    0.2330 C   0  0  0  0  0  0  0  0  0  0  0  0
   -0.7550    9.2990    0.0860 C   0  0  2  0  0  0  0  0  0  0  0  0
    0.2210    9.1780    1.1250 O   0  0  0  0  0  0  0  0  0  0  0  0
   -0.0700    9.1170   -1.2980 C   0  0  0  0  0  0  0  0  0  0  0  0
   -1.1500    8.9460   -2.3940 C   0  0  0  0  0  0  0  0  0  0  0  0
    0.7280    7.7860   -1.2630 C   0  0  0  0  0  0  0  0  0  0  0  0
    1.0300   12.9900   -1.7810 C   0  0  1  0  0  0  0  0  0  0  0  0
    1.8620   13.3890   -0.5240 C   0  0  0  0  0  0  0  0  0  0  0  0
    0.1020   14.2190   -2.1080 C   0  0  0  0  0  0  0  0  0  0  0  0
   -0.3460   14.3820   -3.5730 C   0  0  0  0  0  0  0  0  0  0  0  0
    0.8500   14.2810   -4.5260 C   0  0  2  0  0  0  0  0  0  0  0  0
    1.8210   15.4670   -4.2020 C   0  0  0  0  0  0  0  0  0  0  0  0
   -0.6886   16.2347   -4.7723 H   0  0  0  0  0  0  0  0  0  0  0  0
   -0.9089   17.4342   -6.0912 H   0  0  0  0  0  0  0  0  0  0  0  0
   -1.8650   15.9135   -6.0912 H   0  0  0  0  0  0  0  0  0  0  0  0
    1.0978   16.3171   -6.6282 H   0  0  0  0  0  0  0  0  0  0  0  0
    0.1134   14.4882   -8.4607 H   0  0  0  0  0  0  0  0  0  0  0  0
   -1.2743   15.6504   -8.2007 H   0  0  0  0  0  0  0  0  0  0  0  0
   -0.1353   16.5905   -9.9934 H   0  0  0  0  0  0  0  0  0  0  0  0
    0.5046   17.4841   -8.5514 H   0  0  0  0  0  0  0  0  0  0  0  0
    2.1471   16.0615   -8.3758 H   0  0  0  0  0  0  0  0  0  0  0  0
    0.3150   14.3152  -10.9407 H   0  0  0  0  0  0  0  0  0  0  0  0
    0.7616   15.5399  -12.1766 H   0  0  0  0  0  0  0  0  0  0  0  0
    1.5607   13.9311  -12.1766 H   0  0  0  0  0  0  0  0  0  0  0  0
    3.8315   14.3404   -9.5996 H   0  0  0  0  0  0  0  0  0  0  0  0
    3.3889   13.5589  -11.1553 H   0  0  0  0  0  0  0  0  0  0  0  0
    4.2686   15.1250  -11.1553 H   0  0  0  0  0  0  0  0  0  0  0  0
   -0.4101   13.7900   -6.2422 H   0  0  0  0  0  0  0  0  0  0  0  0
    1.5015   12.9663   -7.4709 H   0  0  0  0  0  0  0  0  0  0  0  0
    2.4553   14.4221   -7.1141 H   0  0  0  0  0  0  0  0  0  0  0  0
    2.7776   11.8762   -5.8571 H   0  0  0  0  0  0  0  0  0  0  0  0
    3.4567   13.3777   -5.2342 H   0  0  0  0  0  0  0  0  0  0  0  0
    0.1519   11.2106   -3.8145 H   0  0  0  0  0  0  0  0  0  0  0  0
   -0.3184   12.0557   -5.3281 H   0  0  0  0  0  0  0  0  0  0  0  0
    1.0752   10.9223   -5.3281 H   0  0  0  0  0  0  0  0  0  0  0  0
    2.8209   13.5030   -2.9009 H   0  0  0  0  0  0  0  0  0  0  0  0
    3.3041   11.0794   -3.6298 H   0  0  0  0  0  0  0  0  0  0  0  0
    3.5767   11.6238   -1.8925 H   0  0  0  0  0  0  0  0  0  0  0  0
    2.4728    9.2539   -2.2128 H   0  0  0  0  0  0  0  0  0  0  0  0
   -0.6641   11.7957   -2.2193 H   0  0  0  0  0  0  0  0  0  0  0  0
    0.2958   11.7726    0.7093 H   0  0  0  0  0  0  0  0  0  0  0  0
   -1.0893   12.7312    0.0210 H   0  0  0  0  0  0  0  0  0  0  0  0
   -1.8572   10.7319    1.2571 H   0  0  0  0  0  0  0  0  0  0  0  0
   -2.2869   10.6862   -0.4979 H   0  0  0  0  0  0  0  0  0  0  0  0
   -1.5185    8.5110    0.1645 H   0  0  0  0  0  0  0  0  0  0  0  0
   -0.1300    9.6290    1.9120 H   0  0  0  0  0  0  0  0  0  0  0  0
   -2.1309    8.7907   -1.9211 H   0  0  0  0  0  0  0  0  0  0  0  0
   -1.1837    9.8500   -3.0198 H   0  0  0  0  0  0  0  0  0  0  0  0
   -0.9028    8.0758   -3.0198 H   0  0  0  0  0  0  0  0  0  0  0  0
    0.9045    7.4917   -0.2179 H   0  0  0  0  0  0  0  0  0  0  0  0
    0.1522    6.9997   -1.7731 H   0  0  0  0  0  0  0  0  0  0  0  0
    1.6928    7.9234   -1.7731 H   0  0  0  0  0  0  0  0  0  0  0  0
    1.3038   13.1213    0.3853 H   0  0  0  0  0  0  0  0  0  0  0  0
    2.8229   12.8537   -0.5353 H   0  0  0  0  0  0  0  0  0  0  0  0
    2.0462   14.4734   -0.5353 H   0  0  0  0  0  0  0  0  0  0  0  0
   -0.8042   14.1248   -1.4916 H   0  0  0  0  0  0  0  0  0  0  0  0
    0.7152   15.1069   -1.8945 H   0  0  0  0  0  0  0  0  0  0  0  0
   -1.0696   13.5907   -3.8183 H   0  0  0  0  0  0  0  0  0  0  0  0
   -0.8062   15.3741   -3.6911 H   0  0  0  0  0  0  0  0  0  0  0  0
    1.9124   15.5786   -3.1115 H   0  0  0  0  0  0  0  0  0  0  0  0
    2.8111   15.2586   -4.6335 H   0  0  0  0  0  0  0  0  0  0  0  0
    1.4213   16.3965   -4.6335 H   0  0  0  0  0  0  0  0  0  0  0  0
  1  2  1  0
  2  3  1  0
  3  4  1  0
  4  5  1  0
  5  6  1  0
  6  7  1  0
  7  8  1  0
  7  9  1  0
  2 10  1  0
 10 11  1  0
 11 12  1  0
 12 13  1  0
 13 14  1  6
 13 15  1  0
 15 16  1  0
 16 17  1  0
 17 18  2  0
 18 19  1  0
 19 20  1  0
 20 21  1  0
 21 22  1  0
 22 23  1  0
 22 24  1  0
 24 25  1  0
 24 26  1  0
 19 27  1  0
 27 28  1  1
 27 29  1  0
 29 30  1  0
 30 31  1  0
 31 32  1  1
  7  5  1  0
 31 10  1  0
 31 13  1  0
 27 15  1  0
 24 18  1  0
  1 33  1  0
  1 34  1  0
  1 35  1  0
  2 36  1  6
  3 37  1  0
  3 38  1  0
  4 39  1  0
  4 40  1  0
  5 41  1  1
  8 42  1  0
  8 43  1  0
  8 44  1  0
  9 45  1  0
  9 46  1  0
  9 47  1  0
 10 48  1  1
 11 49  1  0
 11 50  1  0
 12 51  1  0
 12 52  1  0
 14 53  1  0
 14 54  1  0
 14 55  1  0
 15 56  1  6
 16 57  1  0
 16 58  1  0
 17 59  1  0
 19 60  1  6
 20 61  1  0
 20 62  1  0
 21 63  1  0
 21 64  1  0
 22 65  1  1
 23 66  1  0
 25 67  1  0
 25 68  1  0
 25 69  1  0
 26 70  1  0
 26 71  1  0
 26 72  1  0
 28 73  1  0
 28 74  1  0
 28 75  1  0
 29 76  1  0
 29 77  1  0
 30 78  1  0
 30 79  1  0
 32 80  1  0
 32 81  1  0
 32 82  1  0
M  END
>  <meeko>  (10) 
{"is_sidechain": [false], "intermolecular_energy": 2.731, "internal_energy": -0.839}

$$$$
EPH_relaxed_0001_pdb2pqr_Repair_388_r2_0001_out
     RDKit          3D

 82 86  0  0  0  0  0  0  0  0999 V2000
   -4.0390    7.3500   -3.4990 C   0  0  0  0  0  0  0  0  0  0  0  0
   -3.6260    7.2510   -2.0280 C   0  0  2  0  0  0  0  0  0  0  0  0
   -4.7810    6.7610   -1.1320 C   0  0  0  0  0  0  0  0  0  0  0  0
   -6.0310    6.3440   -1.9130 C   0  0  0  0  0  0  0  0  0  0  0  0
   -7.0950    7.3980   -1.8600 C   0  0  2  0  0  0  0  0  0  0  0  0
   -8.3130    6.9870   -1.2250 O   0  0  0  0  0  0  0  0  0  0  0  0
   -8.4020    7.3060   -2.6230 C   0  0  0  0  0  0  0  0  0  0  0  0
   -8.7150    6.1310   -3.4960 C   0  0  0  0  0  0  0  0  0  0  0  0
   -9.1560    8.5680   -2.9070 C   0  0  0  0  0  0  0  0  0  0  0  0
   -3.1240    8.6040   -1.5370 C   0  0  1  0  0  0  0  0  0  0  0  0
   -3.7800    9.0340   -0.1980 C   0  0  0  0  0  0  0  0  0  0  0  0
   -2.6980    9.8040    0.6030 C   0  0  0  0  0  0  0  0  0  0  0  0
   -1.5750   10.0800   -0.4240 C   0  0  1  0  0  0  0  0  0  0  0  0
   -2.0580   11.3320   -1.2210 C   0  0  0  0  0  0  0  0  0  0  0  0
   -0.1400   10.2850    0.1600 C   0  0  2  0  0  0  0  0  0  0  0  0
    0.0180   11.5000    1.0920 C   0  0  0  0  0  0  0  0  0  0  0  0
    0.4140   12.7720    0.4190 C   0  0  0  0  0  0  0  0  0  0  0  0
    0.9110   12.8760   -0.8280 C   0  0  0  0  0  0  0  0  0  0  0  0
    1.2100   11.6250   -1.6630 C   0  0  1  0  0  0  0  0  0  0  0  0
    2.6110   11.7610   -2.3150 C   0  0  0  0  0  0  0  0  0  0  0  0
    2.7600   13.0480   -3.1190 C   0  0  0  0  0  0  0  0  0  0  0  0
    2.5120   14.2720   -2.2400 C   0  0  2  0  0  0  0  0  0  0  0  0
    3.5580   14.3610   -1.2680 O   0  0  0  0  0  0  0  0  0  0  0  0
    1.1330   14.2420   -1.5230 C   0  0  0  0  0  0  0  0  0  0  0  0
    0.0020   14.4490   -2.5610 C   0  0  0  0  0  0  0  0  0  0  0  0
    1.0680   15.4590   -0.5620 C   0  0  0  0  0  0  0  0  0  0  0  0
    1.0140   10.2330   -0.9210 C   0  0  1  0  0  0  0  0  0  0  0  0
    2.3200    9.8470   -0.1610 C   0  0  0  0  0  0  0  0  0  0  0  0
    0.7770    9.1070   -1.9960 C   0  0  0  0  0  0  0  0  0  0  0  0
   -0.6780    8.8710   -2.4450 C   0  0  0  0  0  0  0  0  0  0  0  0
   -1.6100    8.7340   -1.2370 C   0  0  2  0  0  0  0  0  0  0  0  0
   -1.1620    7.4690   -0.4280 C   0  0  0  0  0  0  0  0  0  0  0  0
   -5.1069    7.6060   -3.5636 H   0  0  0  0  0  0  0  0  0  0  0  0
   -3.4441    8.1310   -3.9951 H   0  0  0  0  0  0  0  0  0  0  0  0
   -3.8628    6.3842   -3.9951 H   0  0  0  0  0  0  0  0  0  0  0  0
   -2.8180    6.5076   -1.9606 H   0  0  0  0  0  0  0  0  0  0  0  0
   -4.4281    5.8948   -0.5530 H   0  0  0  0  0  0  0  0  0  0  0  0
   -5.0701    7.6055   -0.4892 H   0  0  0  0  0  0  0  0  0  0  0  0
   -5.7536    6.1699   -2.9631 H   0  0  0  0  0  0  0  0  0  0  0  0
   -6.4323    5.4283   -1.4543 H   0  0  0  0  0  0  0  0  0  0  0  0
   -6.3377    8.1925   -1.7876 H   0  0  0  0  0  0  0  0  0  0  0  0
   -8.9474    5.2587   -2.8674 H   0  0  0  0  0  0  0  0  0  0  0  0
   -9.5817    6.3666   -4.1311 H   0  0  0  0  0  0  0  0  0  0  0  0
   -7.8459    5.9042   -4.1311 H   0  0  0  0  0  0  0  0  0  0  0  0
   -9.4415    9.0459   -1.9583 H   0  0  0  0  0  0  0  0  0  0  0  0
   -8.5192    9.2533   -3.4857 H   0  0  0  0  0  0  0  0  0  0  0  0
  -10.0612    8.3320   -3.4857 H   0  0  0  0  0  0  0  0  0  0  0  0
   -3.3902    9.2259   -2.4044 H   0  0  0  0  0  0  0  0  0  0  0  0
   -4.6440    9.6866   -0.3918 H   0  0  0  0  0  0  0  0  0  0  0  0
   -4.1403    8.1598    0.3641 H   0  0  0  0  0  0  0  0  0  0  0  0
   -3.1043   10.7472    0.9970 H   0  0  0  0  0  0  0  0  0  0  0  0
   -2.3377    9.2339    1.4720 H   0  0  0  0  0  0  0  0  0  0  0  0
   -2.3621   12.1202   -0.5166 H   0  0  0  0  0  0  0  0  0  0  0  0
   -1.2382   11.7024   -1.8541 H   0  0  0  0  0  0  0  0  0  0  0  0
   -2.9141   11.0558   -1.8541 H   0  0  0  0  0  0  0  0  0  0  0  0
   -0.0178    9.3988    0.8001 H   0  0  0  0  0  0  0  0  0  0  0  0
   -0.9444   11.6681    1.5975 H   0  0  0  0  0  0  0  0  0  0  0  0
    0.8393   11.2511    1.7802 H   0  0  0  0  0  0  0  0  0  0  0  0
    0.2892   13.7037    0.9903 H   0  0  0  0  0  0  0  0  0  0  0  0
    0.4367   11.5883   -2.4444 H   0  0  0  0  0  0  0  0  0  0  0  0
    3.3719   11.7515   -1.5207 H   0  0  0  0  0  0  0  0  0  0  0  0
    2.7393   10.9173   -3.0091 H   0  0  0  0  0  0  0  0  0  0  0  0
    3.7792   13.1001   -3.5296 H   0  0  0  0  0  0  0  0  0  0  0  0
    2.0182   13.0427   -3.9312 H   0  0  0  0  0  0  0  0  0  0  0  0
    2.5045   15.1541   -2.8971 H   0  0  0  0  0  0  0  0  0  0  0  0
    3.1430   14.3670   -0.3890 H   0  0  0  0  0  0  0  0  0  0  0  0
   -0.9493   14.6231   -2.0369 H   0  0  0  0  0  0  0  0  0  0  0  0
    0.2378   15.3189   -3.1916 H   0  0  0  0  0  0  0  0  0  0  0  0
   -0.0856   13.5520   -3.1916 H   0  0  0  0  0  0  0  0  0  0  0  0
    1.0869   15.1053    0.4794 H   0  0  0  0  0  0  0  0  0  0  0  0
    1.9324   16.1150   -0.7422 H   0  0  0  0  0  0  0  0  0  0  0  0
    0.1387   16.0192   -0.7422 H   0  0  0  0  0  0  0  0  0  0  0  0
    2.1424    9.8995    0.9233 H   0  0  0  0  0  0  0  0  0  0  0  0
    2.6148    8.8233   -0.4351 H   0  0  0  0  0  0  0  0  0  0  0  0
    3.1240   10.5459   -0.4351 H   0  0  0  0  0  0  0  0  0  0  0  0
    1.3623    9.3710   -2.8891 H   0  0  0  0  0  0  0  0  0  0  0  0
    1.0823    8.1712   -1.5051 H   0  0  0  0  0  0  0  0  0  0  0  0
   -1.0076    9.7222   -3.0589 H   0  0  0  0  0  0  0  0  0  0  0  0
   -0.7184    7.9380   -3.0263 H   0  0  0  0  0  0  0  0  0  0  0  0
   -1.2359    7.6777    0.6495 H   0  0  0  0  0  0  0  0  0  0  0  0
   -1.8144    6.6208   -0.6828 H   0  0  0  0  0  0  0  0  0  0  0  0
   -0.1212    7.2205   -0.6828 H   0  0  0  0  0  0  0  0  0  0  0  0
  1  2  1  0
  2  3  1  0
  3  4  1  0
  4  5  1  0
  5  6  1  0
  6  7  1  0
  7  8  1  0
  7  9  1  0
  2 10  1  0
 10 11  1  0
 11 12  1  0
 12 13  1  0
 13 14  1  6
 13 15  1  0
 15 16  1  0
 16 17  1  0
 17 18  2  0
 18 19  1  0
 19 20  1  0
 20 21  1  0
 21 22  1  0
 22 23  1  0
 22 24  1  0
 24 25  1  0
 24 26  1  0
 19 27  1  0
 27 28  1  1
 27 29  1  0
 29 30  1  0
 30 31  1  0
 31 32  1  1
  7  5  1  0
 31 10  1  0
 31 13  1  0
 27 15  1  0
 24 18  1  0
  1 33  1  0
  1 34  1  0
  1 35  1  0
  2 36  1  6
  3 37  1  0
  3 38  1  0
  4 39  1  0
  4 40  1  0
  5 41  1  1
  8 42  1  0
  8 43  1  0
  8 44  1  0
  9 45  1  0
  9 46  1  0
  9 47  1  0
 10 48  1  6
 11 49  1  0
 11 50  1  0
 12 51  1  0
 12 52  1  0
 14 53  1  0
 14 54  1  0
 14 55  1  0
 15 56  1  1
 16 57  1  0
 16 58  1  0
 17 59  1  0
 19 60  1  6
 20 61  1  0
 20 62  1  0
 21 63  1  0
 21 64  1  0
 22 65  1  6
 23 66  1  0
 25 67  1  0
 25 68  1  0
 25 69  1  0
 26 70  1  0
 26 71  1  0
 26 72  1  0
 28 73  1  0
 28 74  1  0
 28 75  1  0
 29 76  1  0
 29 77  1  0
 30 78  1  0
 30 79  1  0
 32 80  1  0
 32 81  1  0
 32 82  1  0
M  END
>  <meeko>  (11) 
{"is_sidechain": [false], "intermolecular_energy": 2.731, "internal_energy": -0.839}

$$$$
EPH_relaxed_0001_pdb2pqr_Repair_388_r2_0001_out
     RDKit          3D

 82 86  0  0  0  0  0  0  0  0999 V2000
   -2.1600    7.8140   -2.0480 C   0  0  0  0  0  0  0  0  0  0  0  0
   -2.3450    8.5200   -0.7020 C   0  0  2  0  0  0  0  0  0  0  0  0
   -3.8230    8.5630   -0.2670 C   0  0  0  0  0  0  0  0  0  0  0  0
   -4.7100    7.5530   -0.9990 C   0  0  0  0  0  0  0  0  0  0  0  0
   -6.1150    8.0530   -1.1470 C   0  0  2  0  0  0  0  0  0  0  0  0
   -7.1290    7.1090   -0.7760 O   0  0  0  0  0  0  0  0  0  0  0  0
   -7.0990    7.4970   -2.1590 C   0  0  0  0  0  0  0  0  0  0  0  0
   -6.7170    6.3930   -3.0940 C   0  0  0  0  0  0  0  0  0  0  0  0
   -8.2600    8.3490   -2.5710 C   0  0  0  0  0  0  0  0  0  0  0  0
   -1.7810    9.9340   -0.7750 C   0  0  1  0  0  0  0  0  0  0  0  0
   -1.3110   10.4620    0.6070 C   0  0  0  0  0  0  0  0  0  0  0  0
   -0.0690   11.3520    0.3460 C   0  0  0  0  0  0  0  0  0  0  0  0
   -0.0640   11.5770   -1.1840 C   0  0  1  0  0  0  0  0  0  0  0  0
   -1.0940   12.7250   -1.4240 C   0  0  0  0  0  0  0  0  0  0  0  0
    1.3220   11.9000   -1.8310 C   0  0  2  0  0  0  0  0  0  0  0  0
    1.9800   13.2040   -1.3460 C   0  0  0  0  0  0  0  0  0  0  0  0
    1.6410   14.4220   -2.1400 C   0  0  0  0  0  0  0  0  0  0  0  0
    1.0740   14.4280   -3.3610 C   0  0  0  0  0  0  0  0  0  0  0  0
    0.8040   13.1160   -4.1090 C   0  0  1  0  0  0  0  0  0  0  0  0
    1.2830   13.2500   -5.5780 C   0  0  0  0  0  0  0  0  0  0  0  0
    0.6780   14.4600   -6.2840 C   0  0  0  0  0  0  0  0  0  0  0  0
    1.0180   15.7500   -5.5420 C   0  0  2  0  0  0  0  0  0  0  0  0
    2.4270   15.9780   -5.6350 O   0  0  0  0  0  0  0  0  0  0  0  0
    0.5900   15.7280   -4.0480 C   0  0  0  0  0  0  0  0  0  0  0  0
   -0.9550   15.7850   -3.9470 C   0  0  0  0  0  0  0  0  0  0  0  0
    1.1160   17.0280   -3.3810 C   0  0  0  0  0  0  0  0  0  0  0  0
    1.3420   11.7950   -3.4090 C   0  0  1  0  0  0  0  0  0  0  0  0
    2.8240   11.5410   -3.8210 C   0  0  0  0  0  0  0  0  0  0  0  0
    0.5170   10.5610   -3.9370 C   0  0  0  0  0  0  0  0  0  0  0  0
   -0.7820   10.2200   -3.1820 C   0  0  0  0  0  0  0  0  0  0  0  0
   -0.5380   10.1590   -1.6710 C   0  0  2  0  0  0  0  0  0  0  0  0
    0.4780    8.9980   -1.3960 C   0  0  0  0  0  0  0  0  0  0  0  0
   -1.8846    6.7630   -1.8760 H   0  0  0  0  0  0  0  0  0  0  0  0
   -3.1001    7.8582   -2.6175 H   0  0  0  0  0  0  0  0  0  0  0  0
   -1.3624    8.3136   -2.6175 H   0  0  0  0  0  0  0  0  0  0  0  0
   -1.7960    7.9399    0.0543 H   0  0  0  0  0  0  0  0  0  0  0  0
   -3.8738    8.3521    0.8114 H   0  0  0  0  0  0  0  0  0  0  0  0
   -4.2025    9.5646   -0.5174 H   0  0  0  0  0  0  0  0  0  0  0  0
   -4.2901    7.3689   -1.9989 H   0  0  0  0  0  0  0  0  0  0  0  0
   -4.7366    6.6272   -0.4056 H   0  0  0  0  0  0  0  0  0  0  0  0
   -5.7988    9.0802   -0.9128 H   0  0  0  0  0  0  0  0  0  0  0  0
   -6.4115    5.5101   -2.5134 H   0  0  0  0  0  0  0  0  0  0  0  0
   -7.5781    6.1350   -3.7280 H   0  0  0  0  0  0  0  0  0  0  0  0
   -5.8806    6.7224   -3.7280 H   0  0  0  0  0  0  0  0  0  0  0  0
   -8.7742    8.7263   -1.6748 H   0  0  0  0  0  0  0  0  0  0  0  0
   -7.8978    9.1973   -3.1704 H   0  0  0  0  0  0  0  0  0  0  0  0
   -8.9606    7.7491   -3.1704 H   0  0  0  0  0  0  0  0  0  0  0  0
   -2.6503   10.4570   -1.2002 H   0  0  0  0  0  0  0  0  0  0  0  0
   -2.1094   11.0543    1.0779 H   0  0  0  0  0  0  0  0  0  0  0  0
   -1.0665    9.6312    1.2852 H   0  0  0  0  0  0  0  0  0  0  0  0
   -0.1590   12.3100    0.8790 H   0  0  0  0  0  0  0  0  0  0  0  0
    0.8610   10.8845    0.7016 H   0  0  0  0  0  0  0  0  0  0  0  0
   -1.4424   13.1134   -0.4556 H   0  0  0  0  0  0  0  0  0  0  0  0
   -0.6142   13.5351   -1.9928 H   0  0  0  0  0  0  0  0  0  0  0  0
   -1.9512   12.3355   -1.9928 H   0  0  0  0  0  0  0  0  0  0  0  0
    1.9552   11.0853   -1.4498 H   0  0  0  0  0  0  0  0  0  0  0  0
    1.6654   13.3774   -0.3063 H   0  0  0  0  0  0  0  0  0  0  0  0
    3.0644   13.0585   -1.4592 H   0  0  0  0  0  0  0  0  0  0  0  0
    1.8744   15.3977   -1.6889 H   0  0  0  0  0  0  0  0  0  0  0  0
   -0.2860   12.9702   -4.0838 H   0  0  0  0  0  0  0  0  0  0  0  0
    2.3784   13.3500   -5.5837 H   0  0  0  0  0  0  0  0  0  0  0  0
    0.9551   12.3501   -6.1189 H   0  0  0  0  0  0  0  0  0  0  0  0
    1.0777   14.5170   -7.3072 H   0  0  0  0  0  0  0  0  0  0  0  0
   -0.4157   14.3443   -6.3046 H   0  0  0  0  0  0  0  0  0  0  0  0
    0.4518   16.5637   -6.0189 H   0  0  0  0  0  0  0  0  0  0  0  0
    2.7390   15.5620   -6.4570 H   0  0  0  0  0  0  0  0  0  0  0  0
   -1.2531   15.7960   -2.8882 H   0  0  0  0  0  0  0  0  0  0  0  0
   -1.3213   16.6973   -4.4405 H   0  0  0  0  0  0  0  0  0  0  0  0
   -1.3875   14.9022   -4.4405 H   0  0  0  0  0  0  0  0  0  0  0  0
    1.0731   16.9220   -2.2870 H   0  0  0  0  0  0  0  0  0  0  0  0
    2.1563   17.2045   -3.6918 H   0  0  0  0  0  0  0  0  0  0  0  0
    0.4912   17.8783   -3.6918 H   0  0  0  0  0  0  0  0  0  0  0  0
    3.4427   11.4350   -2.9177 H   0  0  0  0  0  0  0  0  0  0  0  0
    2.8858   10.6192   -4.4180 H   0  0  0  0  0  0  0  0  0  0  0  0
    3.1892   12.3896   -4.4180 H   0  0  0  0  0  0  0  0  0  0  0  0
    0.2498   10.7630   -4.9848 H   0  0  0  0  0  0  0  0  0  0  0  0
    1.1734    9.6909   -3.7884 H   0  0  0  0  0  0  0  0  0  0  0  0
   -1.5350   10.9933   -3.3940 H   0  0  0  0  0  0  0  0  0  0  0  0
   -1.1360    9.2350   -3.5202 H   0  0  0  0  0  0  0  0  0  0  0  0
    0.5959    8.8633   -0.3107 H   0  0  0  0  0  0  0  0  0  0  0  0
    0.0998    8.0664   -1.8422 H   0  0  0  0  0  0  0  0  0  0  0  0
    1.4515    9.2493   -1.8422 H   0  0  0  0  0  0  0  0  0  0  0  0
  1  2  1  0
  2  3  1  0
  3  4  1  0
  4  5  1  0
  5  6  1  0
  6  7  1  0
  7  8  1  0
  7  9  1  0
  2 10  1  0
 10 11  1  0
 11 12  1  0
 12 13  1  0
 13 14  1  1
 13 15  1  0
 15 16  1  0
 16 17  1  0
 17 18  2  0
 18 19  1  0
 19 20  1  0
 20 21  1  0
 21 22  1  0
 22 23  1  0
 22 24  1  0
 24 25  1  0
 24 26  1  0
 19 27  1  0
 27 28  1  6
 27 29  1  0
 29 30  1  0
 30 31  1  0
 31 32  1  6
  7  5  1  0
 31 10  1  0
 31 13  1  0
 27 15  1  0
 24 18  1  0
  1 33  1  0
  1 34  1  0
  1 35  1  0
  2 36  1  1
  3 37  1  0
  3 38  1  0
  4 39  1  0
  4 40  1  0
  5 41  1  1
  8 42  1  0
  8 43  1  0
  8 44  1  0
  9 45  1  0
  9 46  1  0
  9 47  1  0
 10 48  1  6
 11 49  1  0
 11 50  1  0
 12 51  1  0
 12 52  1  0
 14 53  1  0
 14 54  1  0
 14 55  1  0
 15 56  1  1
 16 57  1  0
 16 58  1  0
 17 59  1  0
 19 60  1  6
 20 61  1  0
 20 62  1  0
 21 63  1  0
 21 64  1  0
 22 65  1  6
 23 66  1  0
 25 67  1  0
 25 68  1  0
 25 69  1  0
 26 70  1  0
 26 71  1  0
 26 72  1  0
 28 73  1  0
 28 74  1  0
 28 75  1  0
 29 76  1  0
 29 77  1  0
 30 78  1  0
 30 79  1  0
 32 80  1  0
 32 81  1  0
 32 82  1  0
M  END
>  <meeko>  (12) 
{"is_sidechain": [false], "intermolecular_energy": 2.731, "internal_energy": -0.839}

$$$$
EPH_relaxed_0001_pdb2pqr_Repair_388_r2_0001_out
     RDKit          3D

 82 86  0  0  0  0  0  0  0  0999 V2000
   -0.5130    9.2420   -1.8270 C   0  0  0  0  0  0  0  0  0  0  0  0
    0.5240   10.1820   -2.4480 C   0  0  2  0  0  0  0  0  0  0  0  0
    1.8850    9.4890   -2.6570 C   0  0  0  0  0  0  0  0  0  0  0  0
    2.7620   10.1610   -3.7170 C   0  0  0  0  0  0  0  0  0  0  0  0
    4.1310   10.4690   -3.1900 C   0  0  2  0  0  0  0  0  0  0  0  0
    4.6050   11.7880   -3.4900 O   0  0  0  0  0  0  0  0  0  0  0  0
    5.3370   10.7010   -4.0800 C   0  0  0  0  0  0  0  0  0  0  0  0
    5.2310   10.6340   -5.5710 C   0  0  0  0  0  0  0  0  0  0  0  0
    6.7030   10.5090   -3.4980 C   0  0  0  0  0  0  0  0  0  0  0  0
    0.6970   11.4170   -1.5710 C   0  0  1  0  0  0  0  0  0  0  0  0
    1.8280   11.2500   -0.5210 C   0  0  0  0  0  0  0  0  0  0  0  0
    2.4920   12.6400   -0.3550 C   0  0  0  0  0  0  0  0  0  0  0  0
    1.5220   13.6220   -1.0530 C   0  0  1  0  0  0  0  0  0  0  0  0
    0.4000   13.8930   -0.0020 C   0  0  0  0  0  0  0  0  0  0  0  0
    2.1490   14.9530   -1.5840 C   0  0  2  0  0  0  0  0  0  0  0  0
    2.7540   15.8650   -0.5030 C   0  0  0  0  0  0  0  0  0  0  0  0
    1.8170   16.8690    0.0820 C   0  0  0  0  0  0  0  0  0  0  0  0
    0.6280   17.2250   -0.4380 C   0  0  0  0  0  0  0  0  0  0  0  0
    0.1610   16.6690   -1.7890 C   0  0  1  0  0  0  0  0  0  0  0  0
   -0.3900   17.8270   -2.6630 C   0  0  0  0  0  0  0  0  0  0  0  0
   -1.4780   18.6280   -1.9550 C   0  0  0  0  0  0  0  0  0  0  0  0
   -0.9580   19.2130   -0.6440 C   0  0  2  0  0  0  0  0  0  0  0  0
    0.0400   20.1940   -0.9410 O   0  0  0  0  0  0  0  0  0  0  0  0
   -0.3690   18.1410    0.3150 C   0  0  0  0  0  0  0  0  0  0  0  0
   -1.5120   17.2580    0.8740 C   0  0  0  0  0  0  0  0  0  0  0  0
    0.2460   18.8780    1.5350 C   0  0  0  0  0  0  0  0  0  0  0  0
    1.2110   15.7640   -2.5670 C   0  0  1  0  0  0  0  0  0  0  0  0
    2.1460   16.6600   -3.4350 C   0  0  0  0  0  0  0  0  0  0  0  0
    0.4390   14.8260   -3.5680 C   0  0  0  0  0  0  0  0  0  0  0  0
   -0.0510   13.4740   -3.0160 C   0  0  0  0  0  0  0  0  0  0  0  0
    1.0750   12.7430   -2.2770 C   0  0  2  0  0  0  0  0  0  0  0  0
    2.2090   12.4380   -3.3140 C   0  0  0  0  0  0  0  0  0  0  0  0
   -0.4497    9.2994   -0.7303 H   0  0  0  0  0  0  0  0  0  0  0  0
   -1.5203    9.5411   -2.1523 H   0  0  0  0  0  0  0  0  0  0  0  0
   -0.3139    8.2102   -2.1523 H   0  0  0  0  0  0  0  0  0  0  0  0
    0.1499   10.4790   -3.4389 H   0  0  0  0  0  0  0  0  0  0  0  0
    2.4288    9.4964   -1.7009 H   0  0  0  0  0  0  0  0  0  0  0  0
    1.6751    8.4695   -3.0129 H   0  0  0  0  0  0  0  0  0  0  0  0
    2.8560    9.4871   -4.5813 H   0  0  0  0  0  0  0  0  0  0  0  0
    2.2847   11.1089   -4.0062 H   0  0  0  0  0  0  0  0  0  0  0  0
    3.9703    9.8127   -2.3220 H   0  0  0  0  0  0  0  0  0  0  0  0
    4.3315   10.0654   -5.8495 H   0  0  0  0  0  0  0  0  0  0  0  0
    5.1619   11.6529   -5.9798 H   0  0  0  0  0  0  0  0  0  0  0  0
    6.1217   10.1345   -5.9798 H   0  0  0  0  0  0  0  0  0  0  0  0
    6.6383   10.5181   -2.3999 H   0  0  0  0  0  0  0  0  0  0  0  0
    7.1121    9.5445   -3.8332 H   0  0  0  0  0  0  0  0  0  0  0  0
    7.3622   11.3233   -3.8332 H   0  0  0  0  0  0  0  0  0  0  0  0
   -0.3176   11.4898   -1.1523 H   0  0  0  0  0  0  0  0  0  0  0  0
    1.4077   10.9139    0.4384 H   0  0  0  0  0  0  0  0  0  0  0  0
    2.5617   10.4980   -0.8468 H   0  0  0  0  0  0  0  0  0  0  0  0
    2.6014   12.8934    0.7098 H   0  0  0  0  0  0  0  0  0  0  0  0
    3.5027   12.6737   -0.7879 H   0  0  0  0  0  0  0  0  0  0  0  0
    0.8152   13.7927    1.0117 H   0  0  0  0  0  0  0  0  0  0  0  0
    0.0080   14.9117   -0.1386 H   0  0  0  0  0  0  0  0  0  0  0  0
   -0.4138   13.1656   -0.1386 H   0  0  0  0  0  0  0  0  0  0  0  0
    2.9999   14.5924   -2.1806 H   0  0  0  0  0  0  0  0  0  0  0  0
    3.1211   15.2264    0.3139 H   0  0  0  0  0  0  0  0  0  0  0  0
    3.5466   16.4426   -1.0011 H   0  0  0  0  0  0  0  0  0  0  0  0
    2.1245   17.3594    1.0174 H   0  0  0  0  0  0  0  0  0  0  0  0
   -0.6453   15.9560   -1.5619 H   0  0  0  0  0  0  0  0  0  0  0  0
    0.4394   18.5044   -2.9144 H   0  0  0  0  0  0  0  0  0  0  0  0
   -0.8365   17.3816   -3.5642 H   0  0  0  0  0  0  0  0  0  0  0  0
   -1.8056   19.4483   -2.6106 H   0  0  0  0  0  0  0  0  0  0  0  0
   -2.3195   17.9560   -1.7307 H   0  0  0  0  0  0  0  0  0  0  0  0
   -1.8146   19.6635   -0.1212 H   0  0  0  0  0  0  0  0  0  0  0  0
   -0.3380   21.0680   -0.7460 H   0  0  0  0  0  0  0  0  0  0  0  0
   -1.4864   17.2778    1.9735 H   0  0  0  0  0  0  0  0  0  0  0  0
   -2.4798   17.6453    0.5228 H   0  0  0  0  0  0  0  0  0  0  0  0
   -1.3816   16.2238    0.5228 H   0  0  0  0  0  0  0  0  0  0  0  0
   -0.1309   18.4263    2.4644 H   0  0  0  0  0  0  0  0  0  0  0  0
    1.3420   18.7895    1.5025 H   0  0  0  0  0  0  0  0  0  0  0  0
   -0.0372   19.9404    1.5025 H   0  0  0  0  0  0  0  0  0  0  0  0
    2.7828   17.2702   -2.7777 H   0  0  0  0  0  0  0  0  0  0  0  0
    2.7789   16.0225   -4.0699 H   0  0  0  0  0  0  0  0  0  0  0  0
    1.5360   17.3194   -4.0699 H   0  0  0  0  0  0  0  0  0  0  0  0
   -0.4421   15.3773   -3.9283 H   0  0  0  0  0  0  0  0  0  0  0  0
    1.1729   14.5699   -4.3464 H   0  0  0  0  0  0  0  0  0  0  0  0
   -0.8837   13.6503   -2.3192 H   0  0  0  0  0  0  0  0  0  0  0  0
   -0.3805   12.8494   -3.8594 H   0  0  0  0  0  0  0  0  0  0  0  0
    3.1373   12.1883   -2.7793 H   0  0  0  0  0  0  0  0  0  0  0  0
    1.9097   11.5884   -3.9454 H   0  0  0  0  0  0  0  0  0  0  0  0
    2.3762   13.3231   -3.9454 H   0  0  0  0  0  0  0  0  0  0  0  0
  1  2  1  0
  2  3  1  0
  3  4  1  0
  4  5  1  0
  5  6  1  0
  6  7  1  0
  7  8  1  0
  7  9  1  0
  2 10  1  0
 10 11  1  0
 11 12  1  0
 12 13  1  0
 13 14  1  1
 13 15  1  0
 15 16  1  0
 16 17  1  0
 17 18  2  0
 18 19  1  0
 19 20  1  0
 20 21  1  0
 21 22  1  0
 22 23  1  0
 22 24  1  0
 24 25  1  0
 24 26  1  0
 19 27  1  0
 27 28  1  6
 27 29  1  0
 29 30  1  0
 30 31  1  0
 31 32  1  6
  7  5  1  0
 31 10  1  0
 31 13  1  0
 27 15  1  0
 24 18  1  0
  1 33  1  0
  1 34  1  0
  1 35  1  0
  2 36  1  6
  3 37  1  0
  3 38  1  0
  4 39  1  0
  4 40  1  0
  5 41  1  1
  8 42  1  0
  8 43  1  0
  8 44  1  0
  9 45  1  0
  9 46  1  0
  9 47  1  0
 10 48  1  1
 11 49  1  0
 11 50  1  0
 12 51  1  0
 12 52  1  0
 14 53  1  0
 14 54  1  0
 14 55  1  0
 15 56  1  6
 16 57  1  0
 16 58  1  0
 17 59  1  0
 19 60  1  1
 20 61  1  0
 20 62  1  0
 21 63  1  0
 21 64  1  0
 22 65  1  1
 23 66  1  0
 25 67  1  0
 25 68  1  0
 25 69  1  0
 26 70  1  0
 26 71  1  0
 26 72  1  0
 28 73  1  0
 28 74  1  0
 28 75  1  0
 29 76  1  0
 29 77  1  0
 30 78  1  0
 30 79  1  0
 32 80  1  0
 32 81  1  0
 32 82  1  0
M  END
>  <meeko>  (13) 
{"is_sidechain": [false], "intermolecular_energy": 2.731, "internal_energy": -0.839}

$$$$
EPH_relaxed_0001_pdb2pqr_Repair_388_r2_0001_out
     RDKit          3D

 82 86  0  0  0  0  0  0  0  0999 V2000
    0.2400    9.8550   -4.6200 C   0  0  0  0  0  0  0  0  0  0  0  0
    1.3010   10.5690   -3.7780 C   0  0  2  0  0  0  0  0  0  0  0  0
    1.7190    9.7410   -2.5460 C   0  0  0  0  0  0  0  0  0  0  0  0
    0.6940    8.6770   -2.1430 C   0  0  0  0  0  0  0  0  0  0  0  0
   -0.1660    9.1380   -1.0060 C   0  0  2  0  0  0  0  0  0  0  0  0
   -0.7360    8.0840   -0.2200 O   0  0  0  0  0  0  0  0  0  0  0  0
   -1.6650    8.9070   -0.9430 C   0  0  0  0  0  0  0  0  0  0  0  0
   -2.3900    8.1900   -2.0380 C   0  0  0  0  0  0  0  0  0  0  0  0
   -2.4900    9.7980   -0.0670 C   0  0  0  0  0  0  0  0  0  0  0  0
    0.7830   11.9330   -3.3370 C   0  0  1  0  0  0  0  0  0  0  0  0
   -0.7280   11.9130   -2.9850 C   0  0  0  0  0  0  0  0  0  0  0  0
   -0.9270   12.9090   -1.8140 C   0  0  0  0  0  0  0  0  0  0  0  0
    0.3960   13.7080   -1.7510 C   0  0  1  0  0  0  0  0  0  0  0  0
    0.2610   14.7940   -2.8640 C   0  0  0  0  0  0  0  0  0  0  0  0
    0.7560   14.3410   -0.3680 C   0  0  2  0  0  0  0  0  0  0  0  0
   -0.2400   15.3930    0.1480 C   0  0  0  0  0  0  0  0  0  0  0  0
    0.0530   16.8000   -0.2550 C   0  0  0  0  0  0  0  0  0  0  0  0
    1.2200   17.2430   -0.7590 C   0  0  0  0  0  0  0  0  0  0  0  0
    2.4320   16.3090   -0.8760 C   0  0  1  0  0  0  0  0  0  0  0  0
    3.6950   17.0300   -0.3360 C   0  0  0  0  0  0  0  0  0  0  0  0
    3.9310   18.3790   -1.0080 C   0  0  0  0  0  0  0  0  0  0  0  0
    2.7280   19.3000   -0.8210 C   0  0  2  0  0  0  0  0  0  0  0  0
    2.6150   19.6320    0.5670 O   0  0  0  0  0  0  0  0  0  0  0  0
    1.3950   18.6760   -1.3200 C   0  0  0  0  0  0  0  0  0  0  0  0
    1.4050   18.5950   -2.8660 C   0  0  0  0  0  0  0  0  0  0  0  0
    0.2430   19.6460   -0.9430 C   0  0  0  0  0  0  0  0  0  0  0  0
    2.2490   14.8550   -0.2600 C   0  0  1  0  0  0  0  0  0  0  0  0
    2.6060   14.8720    1.2580 C   0  0  0  0  0  0  0  0  0  0  0  0
    3.2710   13.8740   -0.9460 C   0  0  0  0  0  0  0  0  0  0  0  0
    2.8110   13.1880   -2.2460 C   0  0  0  0  0  0  0  0  0  0  0  0
    1.4230   12.5630   -2.0740 C   0  0  2  0  0  0  0  0  0  0  0  0
    1.5320   11.4510   -0.9760 C   0  0  0  0  0  0  0  0  0  0  0  0
   -0.4872    9.3656   -3.9554 H   0  0  0  0  0  0  0  0  0  0  0  0
   -0.2789   10.5884   -5.2547 H   0  0  0  0  0  0  0  0  0  0  0  0
    0.7239    9.0981   -5.2547 H   0  0  0  0  0  0  0  0  0  0  0  0
    2.1933   10.6959   -4.4086 H   0  0  0  0  0  0  0  0  0  0  0  0
    2.6709    9.2382   -2.7721 H   0  0  0  0  0  0  0  0  0  0  0  0
    1.8044   10.4412   -1.7019 H   0  0  0  0  0  0  0  0  0  0  0  0
    0.0520    8.4548   -3.0082 H   0  0  0  0  0  0  0  0  0  0  0  0
    1.2411    7.7801   -1.8172 H   0  0  0  0  0  0  0  0  0  0  0  0
    0.4475   10.0420   -0.8783 H   0  0  0  0  0  0  0  0  0  0  0  0
   -3.1073    7.4806   -1.5996 H   0  0  0  0  0  0  0  0  0  0  0  0
   -2.9294    8.9197   -2.6597 H   0  0  0  0  0  0  0  0  0  0  0  0
   -1.6663    7.6425   -2.6597 H   0  0  0  0  0  0  0  0  0  0  0  0
   -2.2798    9.5710    0.9886 H   0  0  0  0  0  0  0  0  0  0  0  0
   -2.2391   10.8490   -0.2730 H   0  0  0  0  0  0  0  0  0  0  0  0
   -3.5572    9.6286   -0.2730 H   0  0  0  0  0  0  0  0  0  0  0  0
    1.0442   12.5254   -4.2263 H   0  0  0  0  0  0  0  0  0  0  0  0
   -1.3238   12.2268   -3.8548 H   0  0  0  0  0  0  0  0  0  0  0  0
   -1.0547   10.9012   -2.7031 H   0  0  0  0  0  0  0  0  0  0  0  0
   -1.7760   13.5791   -2.0144 H   0  0  0  0  0  0  0  0  0  0  0  0
   -1.1510   12.3982   -0.8659 H   0  0  0  0  0  0  0  0  0  0  0  0
    0.1381   15.7830   -2.3983 H   0  0  0  0  0  0  0  0  0  0  0  0
    1.1662   14.7930   -3.4890 H   0  0  0  0  0  0  0  0  0  0  0  0
   -0.6164   14.5714   -3.4890 H   0  0  0  0  0  0  0  0  0  0  0  0
    0.6632   13.4837    0.3150 H   0  0  0  0  0  0  0  0  0  0  0  0
   -1.2384   15.1313   -0.2325 H   0  0  0  0  0  0  0  0  0  0  0  0
   -0.1666   15.3692    1.2453 H   0  0  0  0  0  0  0  0  0  0  0  0
   -0.7533   17.5377   -0.1295 H   0  0  0  0  0  0  0  0  0  0  0  0
    2.5520   16.0992   -1.9491 H   0  0  0  0  0  0  0  0  0  0  0  0
    3.5737   17.1912    0.7453 H   0  0  0  0  0  0  0  0  0  0  0  0
    4.5633   16.3914   -0.5554 H   0  0  0  0  0  0  0  0  0  0  0  0
    4.8190   18.8521   -0.5635 H   0  0  0  0  0  0  0  0  0  0  0  0
    4.0818   18.2130   -2.0849 H   0  0  0  0  0  0  0  0  0  0  0  0
    2.9007   20.1981   -1.4322 H   0  0  0  0  0  0  0  0  0  0  0  0
    1.7280   19.3650    0.8610 H   0  0  0  0  0  0  0  0  0  0  0  0
    1.5343   17.5480   -3.1775 H   0  0  0  0  0  0  0  0  0  0  0  0
    0.4525   18.9797   -3.2595 H   0  0  0  0  0  0  0  0  0  0  0  0
    2.2353   19.1998   -3.2595 H   0  0  0  0  0  0  0  0  0  0  0  0
    0.1636   19.7129    0.1521 H   0  0  0  0  0  0  0  0  0  0  0  0
    0.4531   20.6432   -1.3570 H   0  0  0  0  0  0  0  0  0  0  0  0
   -0.7039   19.2692   -1.3570 H   0  0  0  0  0  0  0  0  0  0  0  0
    1.6816   14.8280    1.8526 H   0  0  0  0  0  0  0  0  0  0  0  0
    3.2368   14.0029    1.4961 H   0  0  0  0  0  0  0  0  0  0  0  0
    3.1514   15.7971    1.4961 H   0  0  0  0  0  0  0  0  0  0  0  0
    4.1800   14.4488   -1.1770 H   0  0  0  0  0  0  0  0  0  0  0  0
    3.4130   13.0562   -0.2242 H   0  0  0  0  0  0  0  0  0  0  0  0
    2.7720   13.9348   -3.0527 H   0  0  0  0  0  0  0  0  0  0  0  0
    3.5267   12.3904   -2.4942 H   0  0  0  0  0  0  0  0  0  0  0  0
    1.4866   11.9142    0.0207 H   0  0  0  0  0  0  0  0  0  0  0  0
    0.6991   10.7414   -1.0889 H   0  0  0  0  0  0  0  0  0  0  0  0
    2.4868   10.9166   -1.0889 H   0  0  0  0  0  0  0  0  0  0  0  0
  1  2  1  0
  2  3  1  0
  3  4  1  0
  4  5  1  0
  5  6  1  0
  6  7  1  0
  7  8  1  0
  7  9  1  0
  2 10  1  0
 10 11  1  0
 11 12  1  0
 12 13  1  0
 13 14  1  6
 13 15  1  0
 15 16  1  0
 16 17  1  0
 17 18  2  0
 18 19  1  0
 19 20  1  0
 20 21  1  0
 21 22  1  0
 22 23  1  0
 22 24  1  0
 24 25  1  0
 24 26  1  0
 19 27  1  0
 27 28  1  1
 27 29  1  0
 29 30  1  0
 30 31  1  0
 31 32  1  1
  7  5  1  0
 31 10  1  0
 31 13  1  0
 27 15  1  0
 24 18  1  0
  1 33  1  0
  1 34  1  0
  1 35  1  0
  2 36  1  6
  3 37  1  0
  3 38  1  0
  4 39  1  0
  4 40  1  0
  5 41  1  1
  8 42  1  0
  8 43  1  0
  8 44  1  0
  9 45  1  0
  9 46  1  0
  9 47  1  0
 10 48  1  6
 11 49  1  0
 11 50  1  0
 12 51  1  0
 12 52  1  0
 14 53  1  0
 14 54  1  0
 14 55  1  0
 15 56  1  1
 16 57  1  0
 16 58  1  0
 17 59  1  0
 19 60  1  6
 20 61  1  0
 20 62  1  0
 21 63  1  0
 21 64  1  0
 22 65  1  6
 23 66  1  0
 25 67  1  0
 25 68  1  0
 25 69  1  0
 26 70  1  0
 26 71  1  0
 26 72  1  0
 28 73  1  0
 28 74  1  0
 28 75  1  0
 29 76  1  0
 29 77  1  0
 30 78  1  0
 30 79  1  0
 32 80  1  0
 32 81  1  0
 32 82  1  0
M  END
>  <meeko>  (14) 
{"is_sidechain": [false], "intermolecular_energy": 2.731, "internal_energy": -0.839}

$$$$
EPH_relaxed_0001_pdb2pqr_Repair_388_r2_0001_out
     RDKit          3D

 82 86  0  0  0  0  0  0  0  0999 V2000
    0.6570    9.4620    0.0120 C   0  0  0  0  0  0  0  0  0  0  0  0
   -0.5350   10.4240    0.0390 C   0  0  2  0  0  0  0  0  0  0  0  0
   -1.2640   10.4820   -1.3180 C   0  0  0  0  0  0  0  0  0  0  0  0
   -0.5470    9.7200   -2.4360 C   0  0  0  0  0  0  0  0  0  0  0  0
   -0.1910   10.6200   -3.5800 C   0  0  2  0  0  0  0  0  0  0  0  0
    0.3770    9.9510   -4.7140 O   0  0  0  0  0  0  0  0  0  0  0  0
    1.2350   10.8790   -4.0290 C   0  0  0  0  0  0  0  0  0  0  0  0
    2.3980   10.2380   -3.3400 C   0  0  0  0  0  0  0  0  0  0  0  0
    1.5240   12.1220   -4.8110 C   0  0  0  0  0  0  0  0  0  0  0  0
   -0.0680   11.8180    0.4390 C   0  0  1  0  0  0  0  0  0  0  0  0
    1.0400   11.7890    1.5250 C   0  0  0  0  0  0  0  0  0  0  0  0
    1.9920   12.9750    1.2250 C   0  0  0  0  0  0  0  0  0  0  0  0
    1.2280   13.8360    0.1930 C   0  0  1  0  0  0  0  0  0  0  0  0
    0.2310   14.6880    1.0400 C   0  0  0  0  0  0  0  0  0  0  0  0
    2.1040   14.7340   -0.7410 C   0  0  2  0  0  0  0  0  0  0  0  0
    2.9310   15.8130   -0.0210 C   0  0  0  0  0  0  0  0  0  0  0  0
    2.2530   17.1330    0.1430 C   0  0  0  0  0  0  0  0  0  0  0  0
    1.1480   17.5310   -0.5150 C   0  0  0  0  0  0  0  0  0  0  0  0
    0.5230   16.6540   -1.6070 C   0  0  1  0  0  0  0  0  0  0  0  0
    0.1990   17.5260   -2.8490 C   0  0  0  0  0  0  0  0  0  0  0  0
   -0.6650   18.7360   -2.5060 C   0  0  0  0  0  0  0  0  0  0  0  0
    0.0170   19.6140   -1.4600 C   0  0  2  0  0  0  0  0  0  0  0  0
    1.1900   20.1930   -2.0390 O   0  0  0  0  0  0  0  0  0  0  0  0
    0.3990   18.8410   -0.1670 C   0  0  0  0  0  0  0  0  0  0  0  0
   -0.8840   18.4730    0.6180 C   0  0  0  0  0  0  0  0  0  0  0  0
    1.2040   19.8060    0.7450 C   0  0  0  0  0  0  0  0  0  0  0  0
    1.3250   15.3340   -1.9810 C   0  0  1  0  0  0  0  0  0  0  0  0
    2.3950   15.6520   -3.0690 C   0  0  0  0  0  0  0  0  0  0  0  0
    0.3330   14.2940   -2.6240 C   0  0  0  0  0  0  0  0  0  0  0  0
   -0.4130   13.3550   -1.6570 C   0  0  0  0  0  0  0  0  0  0  0  0
    0.5570   12.7040   -0.6670 C   0  0  2  0  0  0  0  0  0  0  0  0
    1.5590   11.8240   -1.4890 C   0  0  0  0  0  0  0  0  0  0  0  0
    0.9565    9.2203    1.0425 H   0  0  0  0  0  0  0  0  0  0  0  0
    0.3711    8.5386   -0.5129 H   0  0  0  0  0  0  0  0  0  0  0  0
    1.4992    9.9364   -0.5129 H   0  0  0  0  0  0  0  0  0  0  0  0
   -1.2509   10.0440    0.7827 H   0  0  0  0  0  0  0  0  0  0  0  0
   -2.2676   10.0498   -1.1916 H   0  0  0  0  0  0  0  0  0  0  0  0
   -1.2968   11.5393   -1.6199 H   0  0  0  0  0  0  0  0  0  0  0  0
    0.3746    9.2766   -2.0310 H   0  0  0  0  0  0  0  0  0  0  0  0
   -1.2272    8.9412   -2.8111 H   0  0  0  0  0  0  0  0  0  0  0  0
   -1.0219   11.2981   -3.3354 H   0  0  0  0  0  0  0  0  0  0  0  0
    2.2647   10.3114   -2.2506 H   0  0  0  0  0  0  0  0  0  0  0  0
    2.4587    9.1790   -3.6314 H   0  0  0  0  0  0  0  0  0  0  0  0
    3.3257   10.7522   -3.6314 H   0  0  0  0  0  0  0  0  0  0  0  0
    1.7175   12.9543   -4.1183 H   0  0  0  0  0  0  0  0  0  0  0  0
    2.4083   11.9592   -5.4447 H   0  0  0  0  0  0  0  0  0  0  0  0
    0.6586   12.3660   -5.4447 H   0  0  0  0  0  0  0  0  0  0  0  0
   -1.0272   12.2456    0.7663 H   0  0  0  0  0  0  0  0  0  0  0  0
    0.5943   11.9045    2.5240 H   0  0  0  0  0  0  0  0  0  0  0  0
    1.5835   10.8328    1.5091 H   0  0  0  0  0  0  0  0  0  0  0  0
    2.1935   13.5523    2.1394 H   0  0  0  0  0  0  0  0  0  0  0  0
    2.9695   12.6404    0.8475 H   0  0  0  0  0  0  0  0  0  0  0  0
    0.4246   14.5226    2.1101 H   0  0  0  0  0  0  0  0  0  0  0  0
    0.3665   15.7537    0.8033 H   0  0  0  0  0  0  0  0  0  0  0  0
   -0.8005   14.3881    0.8033 H   0  0  0  0  0  0  0  0  0  0  0  0
    2.8346   14.0153   -1.1407 H   0  0  0  0  0  0  0  0  0  0  0  0
    3.1850   15.4347    0.9802 H   0  0  0  0  0  0  0  0  0  0  0  0
    3.8085   15.9989   -0.6577 H   0  0  0  0  0  0  0  0  0  0  0  0
    2.6933   17.8397    0.8618 H   0  0  0  0  0  0  0  0  0  0  0  0
   -0.4075   16.2530   -1.1788 H   0  0  0  0  0  0  0  0  0  0  0  0
    1.1437   17.8803   -3.2871 H   0  0  0  0  0  0  0  0  0  0  0  0
   -0.3668   16.9019   -3.5564 H   0  0  0  0  0  0  0  0  0  0  0  0
   -0.8342   19.3277   -3.4178 H   0  0  0  0  0  0  0  0  0  0  0  0
   -1.6215   18.3797   -2.0959 H   0  0  0  0  0  0  0  0  0  0  0  0
   -0.7024   20.3902   -1.1601 H   0  0  0  0  0  0  0  0  0  0  0  0
    1.8710   19.5010   -2.0790 H   0  0  0  0  0  0  0  0  0  0  0  0
   -0.6824   18.5308    1.6978 H   0  0  0  0  0  0  0  0  0  0  0  0
   -1.6881   19.1767    0.3569 H   0  0  0  0  0  0  0  0  0  0  0  0
   -1.1929   17.4500    0.3569 H   0  0  0  0  0  0  0  0  0  0  0  0
    1.0039   19.5661    1.7997 H   0  0  0  0  0  0  0  0  0  0  0  0
    2.2789   19.6924    0.5407 H   0  0  0  0  0  0  0  0  0  0  0  0
    0.8995   20.8431    0.5407 H   0  0  0  0  0  0  0  0  0  0  0  0
    3.3406   15.9330   -2.5823 H   0  0  0  0  0  0  0  0  0  0  0  0
    2.5556   14.7628   -3.6963 H   0  0  0  0  0  0  0  0  0  0  0  0
    2.0439   16.4846   -3.6963 H   0  0  0  0  0  0  0  0  0  0  0  0
   -0.4232   14.8602   -3.1876 H   0  0  0  0  0  0  0  0  0  0  0  0
    0.9654   13.6336   -3.2355 H   0  0  0  0  0  0  0  0  0  0  0  0
   -1.1619   13.9353   -1.0981 H   0  0  0  0  0  0  0  0  0  0  0  0
   -0.8996   12.5620   -2.2439 H   0  0  0  0  0  0  0  0  0  0  0  0
    2.2024   11.2589   -0.7985 H   0  0  0  0  0  0  0  0  0  0  0  0
    0.9964   11.1227   -2.1228 H   0  0  0  0  0  0  0  0  0  0  0  0
    2.1818   12.4724   -2.1228 H   0  0  0  0  0  0  0  0  0  0  0  0
  1  2  1  0
  2  3  1  0
  3  4  1  0
  4  5  1  0
  5  6  1  0
  6  7  1  0
  7  8  1  0
  7  9  1  0
  2 10  1  0
 10 11  1  0
 11 12  1  0
 12 13  1  0
 13 14  1  1
 13 15  1  0
 15 16  1  0
 16 17  1  0
 17 18  2  0
 18 19  1  0
 19 20  1  0
 20 21  1  0
 21 22  1  0
 22 23  1  0
 22 24  1  0
 24 25  1  0
 24 26  1  0
 19 27  1  0
 27 28  1  6
 27 29  1  0
 29 30  1  0
 30 31  1  0
 31 32  1  6
  7  5  1  0
 31 10  1  0
 31 13  1  0
 27 15  1  0
 24 18  1  0
  1 33  1  0
  1 34  1  0
  1 35  1  0
  2 36  1  1
  3 37  1  0
  3 38  1  0
  4 39  1  0
  4 40  1  0
  5 41  1  6
  8 42  1  0
  8 43  1  0
  8 44  1  0
  9 45  1  0
  9 46  1  0
  9 47  1  0
 10 48  1  1
 11 49  1  0
 11 50  1  0
 12 51  1  0
 12 52  1  0
 14 53  1  0
 14 54  1  0
 14 55  1  0
 15 56  1  6
 16 57  1  0
 16 58  1  0
 17 59  1  0
 19 60  1  1
 20 61  1  0
 20 62  1  0
 21 63  1  0
 21 64  1  0
 22 65  1  1
 23 66  1  0
 25 67  1  0
 25 68  1  0
 25 69  1  0
 26 70  1  0
 26 71  1  0
 26 72  1  0
 28 73  1  0
 28 74  1  0
 28 75  1  0
 29 76  1  0
 29 77  1  0
 30 78  1  0
 30 79  1  0
 32 80  1  0
 32 81  1  0
 32 82  1  0
M  END
>  <meeko>  (15) 
{"is_sidechain": [false], "intermolecular_energy": 2.731, "internal_energy": -0.839}

$$$$
EPH_relaxed_0001_pdb2pqr_Repair_388_r2_0001_out
     RDKit          3D

 82 86  0  0  0  0  0  0  0  0999 V2000
   -1.7360   14.8350    0.4500 C   0  0  0  0  0  0  0  0  0  0  0  0
   -0.3870   15.5330    0.2540 C   0  0  2  0  0  0  0  0  0  0  0  0
   -0.4250   16.5570   -0.8980 C   0  0  0  0  0  0  0  0  0  0  0  0
   -0.0230   17.9730   -0.4770 C   0  0  0  0  0  0  0  0  0  0  0  0
    1.4070   18.0350   -0.0330 C   0  0  2  0  0  0  0  0  0  0  0  0
    2.0810   19.2590   -0.3530 O   0  0  0  0  0  0  0  0  0  0  0  0
    2.5800   18.0750   -0.9950 C   0  0  0  0  0  0  0  0  0  0  0  0
    2.3750   18.0540   -2.4770 C   0  0  0  0  0  0  0  0  0  0  0  0
    3.9260   17.6430   -0.5010 C   0  0  0  0  0  0  0  0  0  0  0  0
    0.7010   14.4970   -0.0060 C   0  0  1  0  0  0  0  0  0  0  0  0
    0.8230   13.4590    1.1420 C   0  0  0  0  0  0  0  0  0  0  0  0
    1.1970   12.1060    0.4830 C   0  0  0  0  0  0  0  0  0  0  0  0
    1.6000   12.4750   -0.9640 C   0  0  1  0  0  0  0  0  0  0  0  0
    3.0750   12.9720   -0.8550 C   0  0  0  0  0  0  0  0  0  0  0  0
    1.4500   11.3440   -2.0330 C   0  0  2  0  0  0  0  0  0  0  0  0
    2.3280   10.1020   -1.7970 C   0  0  0  0  0  0  0  0  0  0  0  0
    3.6750   10.1430   -2.4380 C   0  0  0  0  0  0  0  0  0  0  0  0
    4.0570   11.0000   -3.4030 C   0  0  0  0  0  0  0  0  0  0  0  0
    3.0580   11.9900   -4.0160 C   0  0  1  0  0  0  0  0  0  0  0  0
    3.1890   11.9670   -5.5620 C   0  0  0  0  0  0  0  0  0  0  0  0
    4.6200   12.2140   -6.0320 C   0  0  0  0  0  0  0  0  0  0  0  0
    5.5730   11.1750   -5.4470 C   0  0  2  0  0  0  0  0  0  0  0  0
    5.2540    9.8950   -6.0020 O   0  0  0  0  0  0  0  0  0  0  0  0
    5.5210   11.1000   -3.8960 C   0  0  0  0  0  0  0  0  0  0  0  0
    6.1510   12.3800   -3.2920 C   0  0  0  0  0  0  0  0  0  0  0  0
    6.4220    9.9190   -3.4450 C   0  0  0  0  0  0  0  0  0  0  0  0
    1.5520   11.8480   -3.5290 C   0  0  1  0  0  0  0  0  0  0  0  0
    0.8070   10.7950   -4.4060 C   0  0  0  0  0  0  0  0  0  0  0  0
    0.8080   13.2180   -3.7510 C   0  0  0  0  0  0  0  0  0  0  0  0
    0.8940   14.2480   -2.6090 C   0  0  0  0  0  0  0  0  0  0  0  0
    0.5480   13.6040   -1.2630 C   0  0  2  0  0  0  0  0  0  0  0  0
   -0.9380   13.1140   -1.3350 C   0  0  0  0  0  0  0  0  0  0  0  0
   -1.9411   14.7289    1.5255 H   0  0  0  0  0  0  0  0  0  0  0  0
   -2.5307   15.4351   -0.0174 H   0  0  0  0  0  0  0  0  0  0  0  0
   -1.7052   13.8397   -0.0174 H   0  0  0  0  0  0  0  0  0  0  0  0
   -0.1623   16.0846    1.1788 H   0  0  0  0  0  0  0  0  0  0  0  0
    0.2653   16.2197   -1.6852 H   0  0  0  0  0  0  0  0  0  0  0  0
   -1.4668   16.6093   -1.2471 H   0  0  0  0  0  0  0  0  0  0  0  0
   -0.1605   18.6515   -1.3318 H   0  0  0  0  0  0  0  0  0  0  0  0
   -0.6580   18.2719    0.3700 H   0  0  0  0  0  0  0  0  0  0  0  0
    1.1886   17.4009    0.8389 H   0  0  0  0  0  0  0  0  0  0  0  0
    1.3029   17.9442   -2.6973 H   0  0  0  0  0  0  0  0  0  0  0  0
    2.7442   18.9947   -2.9116 H   0  0  0  0  0  0  0  0  0  0  0  0
    2.9272   17.2077   -2.9116 H   0  0  0  0  0  0  0  0  0  0  0  0
    3.9298   17.6418    0.5990 H   0  0  0  0  0  0  0  0  0  0  0  0
    4.1440   16.6298   -0.8696 H   0  0  0  0  0  0  0  0  0  0  0  0
    4.6929   18.3401   -0.8696 H   0  0  0  0  0  0  0  0  0  0  0  0
    1.5674   15.1647   -0.1226 H   0  0  0  0  0  0  0  0  0  0  0  0
    1.6081   13.7661    1.8487 H   0  0  0  0  0  0  0  0  0  0  0  0
   -0.1195   13.3780    1.7034 H   0  0  0  0  0  0  0  0  0  0  0  0
    2.0386   11.6356    1.0125 H   0  0  0  0  0  0  0  0  0  0  0  0
    0.3679   11.3837    0.5138 H   0  0  0  0  0  0  0  0  0  0  0  0
    3.3530   13.0657    0.2052 H   0  0  0  0  0  0  0  0  0  0  0  0
    3.7427   12.2492   -1.3467 H   0  0  0  0  0  0  0  0  0  0  0  0
    3.1692   13.9515   -1.3467 H   0  0  0  0  0  0  0  0  0  0  0  0
    0.4132   11.0105   -1.8789 H   0  0  0  0  0  0  0  0  0  0  0  0
    2.4710    9.9879   -0.7123 H   0  0  0  0  0  0  0  0  0  0  0  0
    1.7950    9.2595   -2.2619 H   0  0  0  0  0  0  0  0  0  0  0  0
    4.4192    9.4104   -2.0924 H   0  0  0  0  0  0  0  0  0  0  0  0
    3.3387   12.9818   -3.6318 H   0  0  0  0  0  0  0  0  0  0  0  0
    2.8623   10.9828   -5.9289 H   0  0  0  0  0  0  0  0  0  0  0  0
    2.5616   12.7771   -5.9623 H   0  0  0  0  0  0  0  0  0  0  0  0
    4.6535   12.1555   -7.1299 H   0  0  0  0  0  0  0  0  0  0  0  0
    4.9347   13.2111   -5.6903 H   0  0  0  0  0  0  0  0  0  0  0  0
    6.5965   11.4795   -5.7111 H   0  0  0  0  0  0  0  0  0  0  0  0
    4.8140    9.3750   -5.3080 H   0  0  0  0  0  0  0  0  0  0  0  0
    6.1216   12.3202   -2.1940 H   0  0  0  0  0  0  0  0  0  0  0  0
    7.1952   12.4677   -3.6266 H   0  0  0  0  0  0  0  0  0  0  0  0
    5.5836   13.2610   -3.6266 H   0  0  0  0  0  0  0  0  0  0  0  0
    6.4521    9.8796   -2.3461 H   0  0  0  0  0  0  0  0  0  0  0  0
    6.0121    8.9755   -3.8347 H   0  0  0  0  0  0  0  0  0  0  0  0
    7.4403   10.0651   -3.8347 H   0  0  0  0  0  0  0  0  0  0  0  0
    0.2951   10.0715   -3.7545 H   0  0  0  0  0  0  0  0  0  0  0  0
    0.0671   11.3042   -5.0410 H   0  0  0  0  0  0  0  0  0  0  0  0
    1.5335   10.2667   -5.0410 H   0  0  0  0  0  0  0  0  0  0  0  0
    1.2318   13.6845   -4.6525 H   0  0  0  0  0  0  0  0  0  0  0  0
   -0.2583   12.9579   -3.8243 H   0  0  0  0  0  0  0  0  0  0  0  0
    1.9169   14.6500   -2.5632 H   0  0  0  0  0  0  0  0  0  0  0  0
    0.1722   15.0538   -2.8082 H   0  0  0  0  0  0  0  0  0  0  0  0
   -1.3311   12.9844   -0.3159 H   0  0  0  0  0  0  0  0  0  0  0  0
   -1.5445   13.8597   -1.8699 H   0  0  0  0  0  0  0  0  0  0  0  0
   -0.9820   12.1538   -1.8699 H   0  0  0  0  0  0  0  0  0  0  0  0
  1  2  1  0
  2  3  1  0
  3  4  1  0
  4  5  1  0
  5  6  1  0
  6  7  1  0
  7  8  1  0
  7  9  1  0
  2 10  1  0
 10 11  1  0
 11 12  1  0
 12 13  1  0
 13 14  1  1
 13 15  1  0
 15 16  1  0
 16 17  1  0
 17 18  2  0
 18 19  1  0
 19 20  1  0
 20 21  1  0
 21 22  1  0
 22 23  1  0
 22 24  1  0
 24 25  1  0
 24 26  1  0
 19 27  1  0
 27 28  1  6
 27 29  1  0
 29 30  1  0
 30 31  1  0
 31 32  1  6
  7  5  1  0
 31 10  1  0
 31 13  1  0
 27 15  1  0
 24 18  1  0
  1 33  1  0
  1 34  1  0
  1 35  1  0
  2 36  1  1
  3 37  1  0
  3 38  1  0
  4 39  1  0
  4 40  1  0
  5 41  1  1
  8 42  1  0
  8 43  1  0
  8 44  1  0
  9 45  1  0
  9 46  1  0
  9 47  1  0
 10 48  1  6
 11 49  1  0
 11 50  1  0
 12 51  1  0
 12 52  1  0
 14 53  1  0
 14 54  1  0
 14 55  1  0
 15 56  1  6
 16 57  1  0
 16 58  1  0
 17 59  1  0
 19 60  1  1
 20 61  1  0
 20 62  1  0
 21 63  1  0
 21 64  1  0
 22 65  1  1
 23 66  1  0
 25 67  1  0
 25 68  1  0
 25 69  1  0
 26 70  1  0
 26 71  1  0
 26 72  1  0
 28 73  1  0
 28 74  1  0
 28 75  1  0
 29 76  1  0
 29 77  1  0
 30 78  1  0
 30 79  1  0
 32 80  1  0
 32 81  1  0
 32 82  1  0
M  END
>  <meeko>  (16) 
{"is_sidechain": [false], "intermolecular_energy": 2.731, "internal_energy": -0.839}

$$$$
EPH_relaxed_0001_pdb2pqr_Repair_388_r2_0001_out
     RDKit          3D

 82 86  0  0  0  0  0  0  0  0999 V2000
    0.9770   14.8750   -2.6420 C   0  0  0  0  0  0  0  0  0  0  0  0
    1.2170   14.2000   -3.9950 C   0  0  2  0  0  0  0  0  0  0  0  0
    0.5000   14.9350   -5.1460 C   0  0  0  0  0  0  0  0  0  0  0  0
    1.0570   14.6000   -6.5320 C   0  0  0  0  0  0  0  0  0  0  0  0
    0.8290   15.7160   -7.5060 C   0  0  2  0  0  0  0  0  0  0  0  0
    0.3700   15.2990   -8.7980 O   0  0  0  0  0  0  0  0  0  0  0  0
    1.6650   15.9200   -8.7550 C   0  0  0  0  0  0  0  0  0  0  0  0
    2.7940   14.9980   -9.0980 C   0  0  0  0  0  0  0  0  0  0  0  0
    1.7020   17.2810   -9.3780 C   0  0  0  0  0  0  0  0  0  0  0  0
    0.7610   12.7470   -3.9400 C   0  0  1  0  0  0  0  0  0  0  0  0
    1.8890   11.7520   -4.3210 C   0  0  0  0  0  0  0  0  0  0  0  0
    1.6840   10.4880   -3.4460 C   0  0  0  0  0  0  0  0  0  0  0  0
    0.2710   10.6580   -2.8410 C   0  0  1  0  0  0  0  0  0  0  0  0
   -0.7070   10.1920   -3.9650 C   0  0  0  0  0  0  0  0  0  0  0  0
    0.0010    9.9090   -1.4950 C   0  0  2  0  0  0  0  0  0  0  0  0
    0.0990    8.3750   -1.5710 C   0  0  0  0  0  0  0  0  0  0  0  0
   -1.1760    7.6700   -1.8940 C   0  0  0  0  0  0  0  0  0  0  0  0
   -2.4070    8.2120   -1.8350 C   0  0  0  0  0  0  0  0  0  0  0  0
   -2.6140    9.6400   -1.3160 C   0  0  1  0  0  0  0  0  0  0  0  0
   -3.7940    9.6590   -0.3090 C   0  0  0  0  0  0  0  0  0  0  0  0
   -5.0700    9.0600   -0.8930 C   0  0  0  0  0  0  0  0  0  0  0  0
   -4.8390    7.6200   -1.3440 C   0  0  2  0  0  0  0  0  0  0  0  0
   -4.5850    6.8110   -0.1920 O   0  0  0  0  0  0  0  0  0  0  0  0
   -3.6660    7.4750   -2.3540 C   0  0  0  0  0  0  0  0  0  0  0  0
   -4.0690    8.0990   -3.7130 C   0  0  0  0  0  0  0  0  0  0  0  0
   -3.4490    5.9610   -2.6190 C   0  0  0  0  0  0  0  0  0  0  0  0
   -1.3180   10.3670   -0.7510 C   0  0  1  0  0  0  0  0  0  0  0  0
   -1.1250   10.0150    0.7560 C   0  0  0  0  0  0  0  0  0  0  0  0
   -1.5320   11.9260   -0.8190 C   0  0  0  0  0  0  0  0  0  0  0  0
   -1.1350   12.6250   -2.1330 C   0  0  0  0  0  0  0  0  0  0  0  0
    0.2710   12.2070   -2.5730 C   0  0  2  0  0  0  0  0  0  0  0  0
    1.2780   12.6820   -1.4720 C   0  0  0  0  0  0  0  0  0  0  0  0
    1.2266   14.1731   -1.8327 H   0  0  0  0  0  0  0  0  0  0  0  0
    1.6122   15.7693   -2.5606 H   0  0  0  0  0  0  0  0  0  0  0  0
   -0.0803   15.1676   -2.5606 H   0  0  0  0  0  0  0  0  0  0  0  0
    2.2972   14.2423   -4.1987 H   0  0  0  0  0  0  0  0  0  0  0  0
   -0.5648   14.6597   -5.1238 H   0  0  0  0  0  0  0  0  0  0  0  0
    0.6586   16.0119   -4.9877 H   0  0  0  0  0  0  0  0  0  0  0  0
    2.1383   14.4166   -6.4468 H   0  0  0  0  0  0  0  0  0  0  0  0
    0.5338   13.7072   -6.9051 H   0  0  0  0  0  0  0  0  0  0  0  0
    0.5393   16.3976   -6.6927 H   0  0  0  0  0  0  0  0  0  0  0  0
    3.2544   14.6220   -8.1725 H   0  0  0  0  0  0  0  0  0  0  0  0
    2.4104   14.1517   -9.6867 H   0  0  0  0  0  0  0  0  0  0  0  0
    3.5466   15.5430   -9.6867 H   0  0  0  0  0  0  0  0  0  0  0  0
    1.7228   18.0457   -8.5875 H   0  0  0  0  0  0  0  0  0  0  0  0
    2.6030   17.3742  -10.0021 H   0  0  0  0  0  0  0  0  0  0  0  0
    0.8074   17.4230  -10.0021 H   0  0  0  0  0  0  0  0  0  0  0  0
   -0.0781   12.7899   -4.6500 H   0  0  0  0  0  0  0  0  0  0  0  0
    1.8192   11.4902   -5.3871 H   0  0  0  0  0  0  0  0  0  0  0  0
    2.8812   12.1948   -4.1495 H   0  0  0  0  0  0  0  0  0  0  0  0
    1.7363    9.5773   -4.0608 H   0  0  0  0  0  0  0  0  0  0  0  0
    2.4595   10.3854   -2.6727 H   0  0  0  0  0  0  0  0  0  0  0  0
   -1.6108    9.7614   -3.5093 H   0  0  0  0  0  0  0  0  0  0  0  0
   -0.9860   11.0540   -4.5889 H   0  0  0  0  0  0  0  0  0  0  0  0
   -0.2133    9.4323   -4.5889 H   0  0  0  0  0  0  0  0  0  0  0  0
    0.8476   10.2326   -0.8717 H   0  0  0  0  0  0  0  0  0  0  0  0
    0.8349    8.1195   -2.3477 H   0  0  0  0  0  0  0  0  0  0  0  0
    0.3863    8.0382   -0.5640 H   0  0  0  0  0  0  0  0  0  0  0  0
   -1.1039    6.6179   -2.2069 H   0  0  0  0  0  0  0  0  0  0  0  0
   -2.8646   10.2502   -2.1963 H   0  0  0  0  0  0  0  0  0  0  0  0
   -3.5076    9.0796    0.5811 H   0  0  0  0  0  0  0  0  0  0  0  0
   -4.0023   10.7095   -0.0579 H   0  0  0  0  0  0  0  0  0  0  0  0
   -5.8587    9.0752   -0.1263 H   0  0  0  0  0  0  0  0  0  0  0  0
   -5.3713    9.6576   -1.7660 H   0  0  0  0  0  0  0  0  0  0  0  0
   -5.7473    7.2891   -1.8689 H   0  0  0  0  0  0  0  0  0  0  0  0
   -3.7620    7.1300    0.2160 H   0  0  0  0  0  0  0  0  0  0  0  0
   -4.6581    9.0112   -3.5373 H   0  0  0  0  0  0  0  0  0  0  0  0
   -3.1631    8.3518   -4.2834 H   0  0  0  0  0  0  0  0  0  0  0  0
   -4.6720    7.3772   -4.2834 H   0  0  0  0  0  0  0  0  0  0  0  0
   -3.3726    5.4281   -1.6597 H   0  0  0  0  0  0  0  0  0  0  0  0
   -4.2994    5.5636   -3.1925 H   0  0  0  0  0  0  0  0  0  0  0  0
   -2.5212    5.8184   -3.1925 H   0  0  0  0  0  0  0  0  0  0  0  0
   -1.5614   10.8110    1.3773 H   0  0  0  0  0  0  0  0  0  0  0  0
   -1.6263    9.0611    0.9768 H   0  0  0  0  0  0  0  0  0  0  0  0
   -0.0512    9.9247    0.9768 H   0  0  0  0  0  0  0  0  0  0  0  0
   -2.6004   12.1230   -0.6469 H   0  0  0  0  0  0  0  0  0  0  0  0
   -0.8577   12.3426   -0.0563 H   0  0  0  0  0  0  0  0  0  0  0  0
   -1.8544   12.3502   -2.9184 H   0  0  0  0  0  0  0  0  0  0  0  0
   -1.1421   13.7125   -1.9678 H   0  0  0  0  0  0  0  0  0  0  0  0
    0.8543   12.4821   -0.4768 H   0  0  0  0  0  0  0  0  0  0  0  0
    2.2267   12.1365   -1.5829 H   0  0  0  0  0  0  0  0  0  0  0  0
    1.4604   13.7611   -1.5829 H   0  0  0  0  0  0  0  0  0  0  0  0
  1  2  1  0
  2  3  1  0
  3  4  1  0
  4  5  1  0
  5  6  1  0
  6  7  1  0
  7  8  1  0
  7  9  1  0
  2 10  1  0
 10 11  1  0
 11 12  1  0
 12 13  1  0
 13 14  1  6
 13 15  1  0
 15 16  1  0
 16 17  1  0
 17 18  2  0
 18 19  1  0
 19 20  1  0
 20 21  1  0
 21 22  1  0
 22 23  1  0
 22 24  1  0
 24 25  1  0
 24 26  1  0
 19 27  1  0
 27 28  1  1
 27 29  1  0
 29 30  1  0
 30 31  1  0
 31 32  1  1
  7  5  1  0
 31 10  1  0
 31 13  1  0
 27 15  1  0
 24 18  1  0
  1 33  1  0
  1 34  1  0
  1 35  1  0
  2 36  1  6
  3 37  1  0
  3 38  1  0
  4 39  1  0
  4 40  1  0
  5 41  1  1
  8 42  1  0
  8 43  1  0
  8 44  1  0
  9 45  1  0
  9 46  1  0
  9 47  1  0
 10 48  1  6
 11 49  1  0
 11 50  1  0
 12 51  1  0
 12 52  1  0
 14 53  1  0
 14 54  1  0
 14 55  1  0
 15 56  1  1
 16 57  1  0
 16 58  1  0
 17 59  1  0
 19 60  1  6
 20 61  1  0
 20 62  1  0
 21 63  1  0
 21 64  1  0
 22 65  1  6
 23 66  1  0
 25 67  1  0
 25 68  1  0
 25 69  1  0
 26 70  1  0
 26 71  1  0
 26 72  1  0
 28 73  1  0
 28 74  1  0
 28 75  1  0
 29 76  1  0
 29 77  1  0
 30 78  1  0
 30 79  1  0
 32 80  1  0
 32 81  1  0
 32 82  1  0
M  END
>  <meeko>  (17) 
{"is_sidechain": [false], "intermolecular_energy": 2.731, "internal_energy": -0.839}

$$$$
EPH_relaxed_0001_pdb2pqr_Repair_388_r2_0001_out
     RDKit          3D

 82 86  0  0  0  0  0  0  0  0999 V2000
    3.1470   14.8450   -7.5430 C   0  0  0  0  0  0  0  0  0  0  0  0
    1.6230   14.9000   -7.3990 C   0  0  2  0  0  0  0  0  0  0  0  0
    1.0220   16.1540   -8.0640 C   0  0  0  0  0  0  0  0  0  0  0  0
    1.9470   16.8080   -9.0930 C   0  0  0  0  0  0  0  0  0  0  0  0
    1.5940   16.4040  -10.4930 C   0  0  2  0  0  0  0  0  0  0  0  0
    0.9860   15.1110  -10.6070 O   0  0  0  0  0  0  0  0  0  0  0  0
    2.2710   15.2640  -11.2310 C   0  0  0  0  0  0  0  0  0  0  0  0
    3.3580   14.4570  -10.5910 C   0  0  0  0  0  0  0  0  0  0  0  0
    2.2210   15.2500  -12.7270 C   0  0  0  0  0  0  0  0  0  0  0  0
    1.2380   14.8570   -5.9250 C   0  0  1  0  0  0  0  0  0  0  0  0
   -0.0140   15.7180   -5.6090 C   0  0  0  0  0  0  0  0  0  0  0  0
   -0.7950   14.9780   -4.4920 C   0  0  0  0  0  0  0  0  0  0  0  0
    0.1890   13.9040   -3.9730 C   0  0  1  0  0  0  0  0  0  0  0  0
    1.1300   14.6640   -2.9860 C   0  0  0  0  0  0  0  0  0  0  0  0
   -0.4520   12.6440   -3.3050 C   0  0  2  0  0  0  0  0  0  0  0  0
   -1.2680   12.9260   -2.0320 C   0  0  0  0  0  0  0  0  0  0  0  0
   -0.4980   12.8650   -0.7540 C   0  0  0  0  0  0  0  0  0  0  0  0
    0.7230   12.3200   -0.6020 C   0  0  0  0  0  0  0  0  0  0  0  0
    1.4150   11.6000   -1.7670 C   0  0  1  0  0  0  0  0  0  0  0  0
    1.9970   10.2510   -1.2700 C   0  0  0  0  0  0  0  0  0  0  0  0
    2.9130   10.4190   -0.0610 C   0  0  0  0  0  0  0  0  0  0  0  0
    2.1730   11.0850    1.0960 C   0  0  2  0  0  0  0  0  0  0  0  0
    1.1570   10.1950    1.5670 O   0  0  0  0  0  0  0  0  0  0  0  0
    1.5350   12.4490    0.7100 C   0  0  0  0  0  0  0  0  0  0  0  0
    2.6490   13.5020    0.4910 C   0  0  0  0  0  0  0  0  0  0  0  0
    0.7010   12.9460    1.9220 C   0  0  0  0  0  0  0  0  0  0  0  0
    0.5530   11.4410   -3.0930 C   0  0  1  0  0  0  0  0  0  0  0  0
   -0.3130   10.1460   -3.0130 C   0  0  0  0  0  0  0  0  0  0  0  0
    1.5250   11.2500   -4.3170 C   0  0  0  0  0  0  0  0  0  0  0  0
    2.0300   12.5300   -5.0100 C   0  0  0  0  0  0  0  0  0  0  0  0
    0.8680   13.4770   -5.3260 C   0  0  2  0  0  0  0  0  0  0  0  0
   -0.0840   12.7470   -6.3350 C   0  0  0  0  0  0  0  0  0  0  0  0
    3.6092   14.8283   -6.5450 H   0  0  0  0  0  0  0  0  0  0  0  0
    3.4307   13.9360   -8.0937 H   0  0  0  0  0  0  0  0  0  0  0  0
    3.4955   15.7312   -8.0937 H   0  0  0  0  0  0  0  0  0  0  0  0
    1.2100   14.0217   -7.9167 H   0  0  0  0  0  0  0  0  0  0  0  0
    0.0888   15.8654   -8.5698 H   0  0  0  0  0  0  0  0  0  0  0  0
    0.8558   16.8926   -7.2660 H   0  0  0  0  0  0  0  0  0  0  0  0
    1.8613   17.9011   -9.0052 H   0  0  0  0  0  0  0  0  0  0  0  0
    2.9755   16.4752   -8.8894 H   0  0  0  0  0  0  0  0  0  0  0  0
    1.3994   17.4503  -10.7712 H   0  0  0  0  0  0  0  0  0  0  0  0
    3.2683   14.5236   -9.4967 H   0  0  0  0  0  0  0  0  0  0  0  0
    3.2667   13.4062  -10.9031 H   0  0  0  0  0  0  0  0  0  0  0  0
    4.3375   14.8484  -10.9031 H   0  0  0  0  0  0  0  0  0  0  0  0
    1.2107   14.9671  -13.0575 H   0  0  0  0  0  0  0  0  0  0  0  0
    2.4656   16.2512  -13.1114 H   0  0  0  0  0  0  0  0  0  0  0  0
    2.9500   14.5214  -13.1114 H   0  0  0  0  0  0  0  0  0  0  0  0
    2.1755   15.2209   -5.4794 H   0  0  0  0  0  0  0  0  0  0  0  0
    0.2905   16.7160   -5.2609 H   0  0  0  0  0  0  0  0  0  0  0  0
   -0.6378   15.8520   -6.5050 H   0  0  0  0  0  0  0  0  0  0  0  0
   -1.0715   15.6733   -3.6857 H   0  0  0  0  0  0  0  0  0  0  0  0
   -1.7343   14.5397   -4.8603 H   0  0  0  0  0  0  0  0  0  0  0  0
    0.8409   14.4305   -1.9507 H   0  0  0  0  0  0  0  0  0  0  0  0
    2.1704   14.3498   -3.1559 H   0  0  0  0  0  0  0  0  0  0  0  0
    1.0417   15.7472   -3.1559 H   0  0  0  0  0  0  0  0  0  0  0  0
   -1.1813   12.3200   -4.0621 H   0  0  0  0  0  0  0  0  0  0  0  0
   -1.6993   13.9340   -2.1211 H   0  0  0  0  0  0  0  0  0  0  0  0
   -2.0223   12.1277   -1.9711 H   0  0  0  0  0  0  0  0  0  0  0  0
   -0.9687   13.3026    0.1387 H   0  0  0  0  0  0  0  0  0  0  0  0
    2.2318   12.2615   -2.0914 H   0  0  0  0  0  0  0  0  0  0  0  0
    1.1640    9.5886   -0.9920 H   0  0  0  0  0  0  0  0  0  0  0  0
    2.5975    9.8250   -2.0873 H   0  0  0  0  0  0  0  0  0  0  0  0
    3.2687    9.4293    0.2614 H   0  0  0  0  0  0  0  0  0  0  0  0
    3.7610   11.0576   -0.3492 H   0  0  0  0  0  0  0  0  0  0  0  0
    2.9121   11.2955    1.8830 H   0  0  0  0  0  0  0  0  0  0  0  0
    0.8070    9.7140    0.7980 H   0  0  0  0  0  0  0  0  0  0  0  0
    3.0194   13.8521    1.4658 H   0  0  0  0  0  0  0  0  0  0  0  0
    3.4765   13.0483   -0.0742 H   0  0  0  0  0  0  0  0  0  0  0  0
    2.2425   14.3537   -0.0742 H   0  0  0  0  0  0  0  0  0  0  0  0
    1.1994   12.6490    2.8565 H   0  0  0  0  0  0  0  0  0  0  0  0
    0.6162   14.0421    1.8840 H   0  0  0  0  0  0  0  0  0  0  0  0
   -0.3034   12.4990    1.8840 H   0  0  0  0  0  0  0  0  0  0  0  0
   -0.4870    9.8858   -1.9585 H   0  0  0  0  0  0  0  0  0  0  0  0
   -1.2779   10.3188   -3.5121 H   0  0  0  0  0  0  0  0  0  0  0  0
    0.2153    9.3202   -3.5121 H   0  0  0  0  0  0  0  0  0  0  0  0
    2.4054   10.6959   -3.9594 H   0  0  0  0  0  0  0  0  0  0  0  0
    0.9287   10.7266   -5.0789 H   0  0  0  0  0  0  0  0  0  0  0  0
    2.7413   13.0423   -4.3455 H   0  0  0  0  0  0  0  0  0  0  0  0
    2.5196   12.2482   -5.9539 H   0  0  0  0  0  0  0  0  0  0  0  0
   -0.8364   12.1700   -5.7773 H   0  0  0  0  0  0  0  0  0  0  0  0
   -0.5883   13.4921   -6.9679 H   0  0  0  0  0  0  0  0  0  0  0  0
    0.5047   12.0666   -6.9679 H   0  0  0  0  0  0  0  0  0  0  0  0
  1  2  1  0
  2  3  1  0
  3  4  1  0
  4  5  1  0
  5  6  1  0
  6  7  1  0
  7  8  1  0
  7  9  1  0
  2 10  1  0
 10 11  1  0
 11 12  1  0
 12 13  1  0
 13 14  1  1
 13 15  1  0
 15 16  1  0
 16 17  1  0
 17 18  2  0
 18 19  1  0
 19 20  1  0
 20 21  1  0
 21 22  1  0
 22 23  1  0
 22 24  1  0
 24 25  1  0
 24 26  1  0
 19 27  1  0
 27 28  1  1
 27 29  1  0
 29 30  1  0
 30 31  1  0
 31 32  1  6
  7  5  1  0
 31 10  1  0
 31 13  1  0
 27 15  1  0
 24 18  1  0
  1 33  1  0
  1 34  1  0
  1 35  1  0
  2 36  1  6
  3 37  1  0
  3 38  1  0
  4 39  1  0
  4 40  1  0
  5 41  1  6
  8 42  1  0
  8 43  1  0
  8 44  1  0
  9 45  1  0
  9 46  1  0
  9 47  1  0
 10 48  1  1
 11 49  1  0
 11 50  1  0
 12 51  1  0
 12 52  1  0
 14 53  1  0
 14 54  1  0
 14 55  1  0
 15 56  1  6
 16 57  1  0
 16 58  1  0
 17 59  1  0
 19 60  1  6
 20 61  1  0
 20 62  1  0
 21 63  1  0
 21 64  1  0
 22 65  1  1
 23 66  1  0
 25 67  1  0
 25 68  1  0
 25 69  1  0
 26 70  1  0
 26 71  1  0
 26 72  1  0
 28 73  1  0
 28 74  1  0
 28 75  1  0
 29 76  1  0
 29 77  1  0
 30 78  1  0
 30 79  1  0
 32 80  1  0
 32 81  1  0
 32 82  1  0
M  END
>  <meeko>  (18) 
{"is_sidechain": [false], "intermolecular_energy": 2.731, "internal_energy": -0.839}

$$$$
EPH_relaxed_0001_pdb2pqr_Repair_388_r2_0001_out
     RDKit          3D

 82 86  0  0  0  0  0  0  0  0999 V2000
   -2.5970    7.7620   -0.1390 C   0  0  0  0  0  0  0  0  0  0  0  0
   -3.1530    9.1870   -0.0640 C   0  0  2  0  0  0  0  0  0  0  0  0
   -4.6540    9.2440   -0.4120 C   0  0  0  0  0  0  0  0  0  0  0  0
   -5.2420    7.8910   -0.8210 C   0  0  0  0  0  0  0  0  0  0  0  0
   -6.3160    8.0430   -1.8550 C   0  0  2  0  0  0  0  0  0  0  0  0
   -7.4890    8.7320   -1.4030 O   0  0  0  0  0  0  0  0  0  0  0  0
   -7.6650    7.3540   -1.7690 C   0  0  0  0  0  0  0  0  0  0  0  0
   -8.0120    6.4600   -0.6200 C   0  0  0  0  0  0  0  0  0  0  0  0
   -8.4520    7.1600   -3.0270 C   0  0  0  0  0  0  0  0  0  0  0  0
   -2.3680   10.1010   -0.9980 C   0  0  1  0  0  0  0  0  0  0  0  0
   -2.9930   11.5160   -1.1140 C   0  0  0  0  0  0  0  0  0  0  0  0
   -1.8160   12.5140   -1.2670 C   0  0  0  0  0  0  0  0  0  0  0  0
   -0.5870   11.6240   -1.5660 C   0  0  1  0  0  0  0  0  0  0  0  0
   -0.6820   11.3090   -3.0910 C   0  0  0  0  0  0  0  0  0  0  0  0
    0.8070   12.2210   -1.1860 C   0  0  2  0  0  0  0  0  0  0  0  0
    1.1930   13.5080   -1.9370 C   0  0  0  0  0  0  0  0  0  0  0  0
    1.9430   13.3010   -3.2120 C   0  0  0  0  0  0  0  0  0  0  0  0
    2.5400   12.1560   -3.5910 C   0  0  0  0  0  0  0  0  0  0  0  0
    2.5790   10.9410   -2.6560 C   0  0  1  0  0  0  0  0  0  0  0  0
    4.0140   10.3520   -2.6320 C   0  0  0  0  0  0  0  0  0  0  0  0
    4.5380   10.0310   -4.0280 C   0  0  0  0  0  0  0  0  0  0  0  0
    4.5380   11.2770   -4.9110 C   0  0  2  0  0  0  0  0  0  0  0  0
    5.4990   12.2050   -4.3980 O   0  0  0  0  0  0  0  0  0  0  0  0
    3.1460   11.9620   -5.0030 C   0  0  0  0  0  0  0  0  0  0  0  0
    2.1830   11.0740   -5.8280 C   0  0  0  0  0  0  0  0  0  0  0  0
    3.3160   13.2810   -5.8050 C   0  0  0  0  0  0  0  0  0  0  0  0
    1.9890   11.1690   -1.1980 C   0  0  1  0  0  0  0  0  0  0  0  0
    3.0970   11.7320   -0.2570 C   0  0  0  0  0  0  0  0  0  0  0  0
    1.5580    9.7790   -0.5950 C   0  0  0  0  0  0  0  0  0  0  0  0
    0.1280    9.3000   -0.9070 C   0  0  0  0  0  0  0  0  0  0  0  0
   -0.8950   10.4040   -0.6240 C   0  0  2  0  0  0  0  0  0  0  0  0
   -0.8380   10.7270    0.9080 C   0  0  0  0  0  0  0  0  0  0  0  0
   -2.4454    7.3735    0.8789 H   0  0  0  0  0  0  0  0  0  0  0  0
   -3.3098    7.1180   -0.6749 H   0  0  0  0  0  0  0  0  0  0  0  0
   -1.6364    7.7709   -0.6749 H   0  0  0  0  0  0  0  0  0  0  0  0
   -3.0412    9.5311    0.9748 H   0  0  0  0  0  0  0  0  0  0  0  0
   -5.2015    9.6085    0.4697 H   0  0  0  0  0  0  0  0  0  0  0  0
   -4.7584    9.9150   -1.2773 H   0  0  0  0  0  0  0  0  0  0  0  0
   -4.4381    7.2625   -1.2318 H   0  0  0  0  0  0  0  0  0  0  0  0
   -5.6882    7.4273    0.0711 H   0  0  0  0  0  0  0  0  0  0  0  0
   -5.5666    8.0997   -2.6583 H   0  0  0  0  0  0  0  0  0  0  0  0
   -7.8089    6.9832    0.3260 H   0  0  0  0  0  0  0  0  0  0  0  0
   -9.0784    6.1948   -0.6708 H   0  0  0  0  0  0  0  0  0  0  0  0
   -7.4038    5.5449   -0.6708 H   0  0  0  0  0  0  0  0  0  0  0  0
   -9.4913    6.9038   -2.7735 H   0  0  0  0  0  0  0  0  0  0  0  0
   -8.4366    8.0888   -3.6161 H   0  0  0  0  0  0  0  0  0  0  0  0
   -8.0066    6.3448   -3.6161 H   0  0  0  0  0  0  0  0  0  0  0  0
   -2.4066    9.5005   -1.9188 H   0  0  0  0  0  0  0  0  0  0  0  0
   -3.6509   11.5685   -1.9940 H   0  0  0  0  0  0  0  0  0  0  0  0
   -3.5996   11.7536   -0.2276 H   0  0  0  0  0  0  0  0  0  0  0  0
   -2.0027   13.2103   -2.0978 H   0  0  0  0  0  0  0  0  0  0  0  0
   -1.6744   13.1332   -0.3689 H   0  0  0  0  0  0  0  0  0  0  0  0
   -0.9970   10.2644   -3.2307 H   0  0  0  0  0  0  0  0  0  0  0  0
   -1.4179   11.9796   -3.5588 H   0  0  0  0  0  0  0  0  0  0  0  0
    0.3019   11.4609   -3.5588 H   0  0  0  0  0  0  0  0  0  0  0  0
    0.6565   12.5198   -0.1381 H   0  0  0  0  0  0  0  0  0  0  0  0
    0.2681   14.0553   -2.1715 H   0  0  0  0  0  0  0  0  0  0  0  0
    1.8726   14.0581   -1.2695 H   0  0  0  0  0  0  0  0  0  0  0  0
    2.0133   14.1569   -3.8994 H   0  0  0  0  0  0  0  0  0  0  0  0
    1.8808   10.2061   -3.0831 H   0  0  0  0  0  0  0  0  0  0  0  0
    4.6877   11.0837   -2.1621 H   0  0  0  0  0  0  0  0  0  0  0  0
    3.9791    9.4107   -2.0639 H   0  0  0  0  0  0  0  0  0  0  0  0
    5.5656    9.6470   -3.9473 H   0  0  0  0  0  0  0  0  0  0  0  0
    3.8803    9.2769   -4.4850 H   0  0  0  0  0  0  0  0  0  0  0  0
    4.7986   10.9592   -5.9313 H   0  0  0  0  0  0  0  0  0  0  0  0
    5.3180   13.0700   -4.8030 H   0  0  0  0  0  0  0  0  0  0  0  0
    1.5486   10.4890   -5.1459 H   0  0  0  0  0  0  0  0  0  0  0  0
    1.5492   11.7113   -6.4622 H   0  0  0  0  0  0  0  0  0  0  0  0
    2.7669   10.3907   -6.4622 H   0  0  0  0  0  0  0  0  0  0  0  0
    3.4246   14.1236   -5.1062 H   0  0  0  0  0  0  0  0  0  0  0  0
    4.2127   13.2120   -6.4384 H   0  0  0  0  0  0  0  0  0  0  0  0
    2.4311   13.4416   -6.4384 H   0  0  0  0  0  0  0  0  0  0  0  0
    2.7995   11.5808    0.7912 H   0  0  0  0  0  0  0  0  0  0  0  0
    4.0435   11.2055   -0.4491 H   0  0  0  0  0  0  0  0  0  0  0  0
    3.2298   12.8069   -0.4491 H   0  0  0  0  0  0  0  0  0  0  0  0
    2.2546    9.0193   -0.9791 H   0  0  0  0  0  0  0  0  0  0  0  0
    1.5833    9.9183    0.4959 H   0  0  0  0  0  0  0  0  0  0  0  0
    0.0671    9.0167   -1.9681 H   0  0  0  0  0  0  0  0  0  0  0  0
   -0.1006    8.4374   -0.2639 H   0  0  0  0  0  0  0  0  0  0  0  0
   -1.0009    9.8039    1.4837 H   0  0  0  0  0  0  0  0  0  0  0  0
    0.1479   11.1458    1.1580 H   0  0  0  0  0  0  0  0  0  0  0  0
   -1.6210   11.4580    1.1580 H   0  0  0  0  0  0  0  0  0  0  0  0
  1  2  1  0
  2  3  1  0
  3  4  1  0
  4  5  1  0
  5  6  1  0
  6  7  1  0
  7  8  1  0
  7  9  1  0
  2 10  1  0
 10 11  1  0
 11 12  1  0
 12 13  1  0
 13 14  1  6
 13 15  1  0
 15 16  1  0
 16 17  1  0
 17 18  2  0
 18 19  1  0
 19 20  1  0
 20 21  1  0
 21 22  1  0
 22 23  1  0
 22 24  1  0
 24 25  1  0
 24 26  1  0
 19 27  1  0
 27 28  1  1
 27 29  1  0
 29 30  1  0
 30 31  1  0
 31 32  1  1
  7  5  1  0
 31 10  1  0
 31 13  1  0
 27 15  1  0
 24 18  1  0
  1 33  1  0
  1 34  1  0
  1 35  1  0
  2 36  1  1
  3 37  1  0
  3 38  1  0
  4 39  1  0
  4 40  1  0
  5 41  1  6
  8 42  1  0
  8 43  1  0
  8 44  1  0
  9 45  1  0
  9 46  1  0
  9 47  1  0
 10 48  1  6
 11 49  1  0
 11 50  1  0
 12 51  1  0
 12 52  1  0
 14 53  1  0
 14 54  1  0
 14 55  1  0
 15 56  1  1
 16 57  1  0
 16 58  1  0
 17 59  1  0
 19 60  1  6
 20 61  1  0
 20 62  1  0
 21 63  1  0
 21 64  1  0
 22 65  1  6
 23 66  1  0
 25 67  1  0
 25 68  1  0
 25 69  1  0
 26 70  1  0
 26 71  1  0
 26 72  1  0
 28 73  1  0
 28 74  1  0
 28 75  1  0
 29 76  1  0
 29 77  1  0
 30 78  1  0
 30 79  1  0
 32 80  1  0
 32 81  1  0
 32 82  1  0
M  END
>  <meeko>  (19) 
{"is_sidechain": [false], "intermolecular_energy": 2.731, "internal_energy": -0.839}

$$$$
