EPH_relaxed_0001_pdb2pqr_Repair_286_r2_0001_out
     RDKit          3D

 82 86  0  0  0  0  0  0  0  0999 V2000
    4.5230   17.7420   -0.7330 C   0  0  0  0  0  0  0  0  0  0  0  0
    3.1460   18.3110   -0.3780 C   0  0  2  0  0  0  0  0  0  0  0  0
    3.1150   18.9140    1.0400 C   0  0  0  0  0  0  0  0  0  0  0  0
    4.4000   18.6790    1.8380 C   0  0  0  0  0  0  0  0  0  0  0  0
    4.3070   19.2490    3.2200 C   0  0  2  0  0  0  0  0  0  0  0  0
    5.3350   20.1930    3.5490 O   0  0  0  0  0  0  0  0  0  0  0  0
    5.3280   18.9740    4.3090 C   0  0  0  0  0  0  0  0  0  0  0  0
    6.5140   18.0960    4.0630 C   0  0  0  0  0  0  0  0  0  0  0  0
    4.9170   19.1570    5.7370 C   0  0  0  0  0  0  0  0  0  0  0  0
    2.0860   17.2230   -0.5050 C   0  0  1  0  0  0  0  0  0  0  0  0
    0.7360   17.7650   -1.0460 C   0  0  0  0  0  0  0  0  0  0  0  0
    0.1250   16.6440   -1.9260 C   0  0  0  0  0  0  0  0  0  0  0  0
    0.9660   15.3890   -1.6000 C   0  0  1  0  0  0  0  0  0  0  0  0
    0.3680   14.8400   -0.2660 C   0  0  0  0  0  0  0  0  0  0  0  0
    1.0190   14.2850   -2.7060 C   0  0  2  0  0  0  0  0  0  0  0  0
   -0.3360   13.6420   -3.0500 C   0  0  0  0  0  0  0  0  0  0  0  0
   -0.6880   12.4300   -2.2530 C   0  0  0  0  0  0  0  0  0  0  0  0
    0.1680   11.7130   -1.5010 C   0  0  0  0  0  0  0  0  0  0  0  0
    1.6650   12.0460   -1.4780 C   0  0  1  0  0  0  0  0  0  0  0  0
    2.4890   10.7400   -1.6360 C   0  0  0  0  0  0  0  0  0  0  0  0
    2.1100    9.6820   -0.6040 C   0  0  0  0  0  0  0  0  0  0  0  0
    0.6270    9.3350   -0.6980 C   0  0  2  0  0  0  0  0  0  0  0  0
    0.3830    8.6860   -1.9490 O   0  0  0  0  0  0  0  0  0  0  0  0
   -0.3020   10.5740   -0.5620 C   0  0  0  0  0  0  0  0  0  0  0  0
   -0.2620   11.0980    0.8950 C   0  0  0  0  0  0  0  0  0  0  0  0
   -1.7610   10.1080   -0.8150 C   0  0  0  0  0  0  0  0  0  0  0  0
    2.1370   13.1890   -2.4760 C   0  0  1  0  0  0  0  0  0  0  0  0
    2.4550   12.5770   -3.8740 C   0  0  0  0  0  0  0  0  0  0  0  0
    3.4830   13.8100   -1.9470 C   0  0  0  0  0  0  0  0  0  0  0  0
    3.3650   14.9770   -0.9470 C   0  0  0  0  0  0  0  0  0  0  0  0
    2.3900   16.0410   -1.4600 C   0  0  2  0  0  0  0  0  0  0  0  0
    2.9760   16.6270   -2.7890 C   0  0  0  0  0  0  0  0  0  0  0  0
    5.0748   17.5140    0.1909 H   0  0  0  0  0  0  0  0  0  0  0  0
    4.3986   16.8216   -1.3224 H   0  0  0  0  0  0  0  0  0  0  0  0
    5.0846   18.4818   -1.3224 H   0  0  0  0  0  0  0  0  0  0  0  0
    2.9310   19.1242   -1.0869 H   0  0  0  0  0  0  0  0  0  0  0  0
    2.9543   19.9987    0.9525 H   0  0  0  0  0  0  0  0  0  0  0  0
    2.3023   18.4113    1.5849 H   0  0  0  0  0  0  0  0  0  0  0  0
    4.5815   17.5965    1.9105 H   0  0  0  0  0  0  0  0  0  0  0  0
    5.2255   19.1833    1.3143 H   0  0  0  0  0  0  0  0  0  0  0  0
    3.2096   19.1760    3.2017 H   0  0  0  0  0  0  0  0  0  0  0  0
    6.9418   17.7793    5.0257 H   0  0  0  0  0  0  0  0  0  0  0  0
    6.2018   17.2097    3.4912 H   0  0  0  0  0  0  0  0  0  0  0  0
    7.2706   18.6534    3.4912 H   0  0  0  0  0  0  0  0  0  0  0  0
    5.7200   18.7995    6.3984 H   0  0  0  0  0  0  0  0  0  0  0  0
    4.7299   20.2235    5.9309 H   0  0  0  0  0  0  0  0  0  0  0  0
    3.9992   18.5825    5.9309 H   0  0  0  0  0  0  0  0  0  0  0  0
    2.0603   16.8684    0.5360 H   0  0  0  0  0  0  0  0  0  0  0  0
    0.0606   18.0015   -0.2106 H   0  0  0  0  0  0  0  0  0  0  0  0
    0.8847   18.6869   -1.6273 H   0  0  0  0  0  0  0  0  0  0  0  0
   -0.9318   16.4808   -1.6682 H   0  0  0  0  0  0  0  0  0  0  0  0
    0.1488   16.8951   -2.9967 H   0  0  0  0  0  0  0  0  0  0  0  0
    0.8802   15.3102    0.5864 H   0  0  0  0  0  0  0  0  0  0  0  0
   -0.7061   15.0731   -0.2223 H   0  0  0  0  0  0  0  0  0  0  0  0
    0.5087   13.7499   -0.2223 H   0  0  0  0  0  0  0  0  0  0  0  0
    1.3137   14.8581   -3.5975 H   0  0  0  0  0  0  0  0  0  0  0  0
   -1.1207   14.3954   -2.8871 H   0  0  0  0  0  0  0  0  0  0  0  0
   -0.2568   13.3065   -4.0946 H   0  0  0  0  0  0  0  0  0  0  0  0
   -1.7351   12.0944   -2.2826 H   0  0  0  0  0  0  0  0  0  0  0  0
    1.8610   12.4946   -0.4929 H   0  0  0  0  0  0  0  0  0  0  0  0
    2.3126   10.3310   -2.6418 H   0  0  0  0  0  0  0  0  0  0  0  0
    3.5486   10.9925   -1.4824 H   0  0  0  0  0  0  0  0  0  0  0  0
    2.7043    8.7741   -0.7843 H   0  0  0  0  0  0  0  0  0  0  0  0
    2.3140   10.0821    0.4001 H   0  0  0  0  0  0  0  0  0  0  0  0
    0.3900    8.6709    0.1463 H   0  0  0  0  0  0  0  0  0  0  0  0
    0.5640    9.3290   -2.6550 H   0  0  0  0  0  0  0  0  0  0  0  0
   -0.3268   10.2493    1.5918 H   0  0  0  0  0  0  0  0  0  0  0  0
    0.6801   11.6401    1.0640 H   0  0  0  0  0  0  0  0  0  0  0  0
   -1.1109   11.7768    1.0640 H   0  0  0  0  0  0  0  0  0  0  0  0
   -2.2666    9.9465    0.1485 H   0  0  0  0  0  0  0  0  0  0  0  0
   -2.2984   10.8792   -1.3864 H   0  0  0  0  0  0  0  0  0  0  0  0
   -1.7518    9.1681   -1.3864 H   0  0  0  0  0  0  0  0  0  0  0  0
    2.9586   11.6077   -3.7440 H   0  0  0  0  0  0  0  0  0  0  0  0
    1.5184   12.4316   -4.4322 H   0  0  0  0  0  0  0  0  0  0  0  0
    3.1124   13.2598   -4.4322 H   0  0  0  0  0  0  0  0  0  0  0  0
    4.0494   13.0059   -1.4545 H   0  0  0  0  0  0  0  0  0  0  0  0
    3.9697   14.2402   -2.8348 H   0  0  0  0  0  0  0  0  0  0  0  0
    3.0014   14.5902    0.0164 H   0  0  0  0  0  0  0  0  0  0  0  0
    4.3565   15.4381   -0.8269 H   0  0  0  0  0  0  0  0  0  0  0  0
    3.7355   17.3865   -2.5514 H   0  0  0  0  0  0  0  0  0  0  0  0
    3.4371   15.8180   -3.3745 H   0  0  0  0  0  0  0  0  0  0  0  0
    2.1670   17.0881   -3.3745 H   0  0  0  0  0  0  0  0  0  0  0  0
  1  2  1  0
  2  3  1  0
  3  4  1  0
  4  5  1  0
  5  6  1  0
  6  7  1  0
  7  8  1  0
  7  9  1  0
  2 10  1  0
 10 11  1  0
 11 12  1  0
 12 13  1  0
 13 14  1  1
 13 15  1  0
 15 16  1  0
 16 17  1  0
 17 18  2  0
 18 19  1  0
 19 20  1  0
 20 21  1  0
 21 22  1  0
 22 23  1  0
 22 24  1  0
 24 25  1  0
 24 26  1  0
 19 27  1  0
 27 28  1  6
 27 29  1  0
 29 30  1  0
 30 31  1  0
 31 32  1  6
  7  5  1  0
 31 10  1  0
 31 13  1  0
 27 15  1  0
 24 18  1  0
  1 33  1  0
  1 34  1  0
  1 35  1  0
  2 36  1  6
  3 37  1  0
  3 38  1  0
  4 39  1  0
  4 40  1  0
  5 41  1  1
  8 42  1  0
  8 43  1  0
  8 44  1  0
  9 45  1  0
  9 46  1  0
  9 47  1  0
 10 48  1  1
 11 49  1  0
 11 50  1  0
 12 51  1  0
 12 52  1  0
 14 53  1  0
 14 54  1  0
 14 55  1  0
 15 56  1  6
 16 57  1  0
 16 58  1  0
 17 59  1  0
 19 60  1  1
 20 61  1  0
 20 62  1  0
 21 63  1  0
 21 64  1  0
 22 65  1  1
 23 66  1  0
 25 67  1  0
 25 68  1  0
 25 69  1  0
 26 70  1  0
 26 71  1  0
 26 72  1  0
 28 73  1  0
 28 74  1  0
 28 75  1  0
 29 76  1  0
 29 77  1  0
 30 78  1  0
 30 79  1  0
 32 80  1  0
 32 81  1  0
 32 82  1  0
M  END
>  <meeko>  (1) 
{"is_sidechain": [false], "intermolecular_energy": 2.731, "internal_energy": -0.839}

$$$$
EPH_relaxed_0001_pdb2pqr_Repair_286_r2_0001_out
     RDKit          3D

 82 86  0  0  0  0  0  0  0  0999 V2000
    3.8240   17.9960    0.6250 C   0  0  0  0  0  0  0  0  0  0  0  0
    2.9490   18.3890   -0.5680 C   0  0  2  0  0  0  0  0  0  0  0  0
    2.2000   19.7150   -0.3280 C   0  0  0  0  0  0  0  0  0  0  0  0
    1.1620   19.6410    0.7950 C   0  0  0  0  0  0  0  0  0  0  0  0
   -0.1620   20.1940    0.3630 C   0  0  2  0  0  0  0  0  0  0  0  0
   -1.1730   20.1900    1.3790 O   0  0  0  0  0  0  0  0  0  0  0  0
   -1.4190   19.3540    0.2360 C   0  0  0  0  0  0  0  0  0  0  0  0
   -1.4120   17.8890    0.5410 C   0  0  0  0  0  0  0  0  0  0  0  0
   -2.5240   19.8470   -0.6450 C   0  0  0  0  0  0  0  0  0  0  0  0
    1.9530   17.2760   -0.8720 C   0  0  1  0  0  0  0  0  0  0  0  0
    0.8150   17.7350   -1.8220 C   0  0  0  0  0  0  0  0  0  0  0  0
    0.4610   16.5190   -2.7160 C   0  0  0  0  0  0  0  0  0  0  0  0
    1.1620   15.3190   -2.0370 C   0  0  1  0  0  0  0  0  0  0  0  0
    0.2070   14.9020   -0.8740 C   0  0  0  0  0  0  0  0  0  0  0  0
    1.5070   14.1070   -2.9630 C   0  0  2  0  0  0  0  0  0  0  0  0
    0.2950   13.4080   -3.6030 C   0  0  0  0  0  0  0  0  0  0  0  0
   -0.2810   12.2800   -2.8130 C   0  0  0  0  0  0  0  0  0  0  0  0
    0.3210   11.6600   -1.7810 C   0  0  0  0  0  0  0  0  0  0  0  0
    1.7560   12.0190   -1.3750 C   0  0  1  0  0  0  0  0  0  0  0  0
    2.5740   10.7190   -1.1590 C   0  0  0  0  0  0  0  0  0  0  0  0
    1.9090    9.7670   -0.1700 C   0  0  0  0  0  0  0  0  0  0  0  0
    0.5060    9.3870   -0.6370 C   0  0  2  0  0  0  0  0  0  0  0  0
    0.6140    8.6070   -1.8320 O   0  0  0  0  0  0  0  0  0  0  0  0
   -0.4070   10.6170   -0.8970 C   0  0  0  0  0  0  0  0  0  0  0  0
   -0.7690   11.2910    0.4500 C   0  0  0  0  0  0  0  0  0  0  0  0
   -1.7430   10.1020   -1.4980 C   0  0  0  0  0  0  0  0  0  0  0  0
    2.5020   13.0600   -2.3160 C   0  0  1  0  0  0  0  0  0  0  0  0
    3.1910   12.3120   -3.4980 C   0  0  0  0  0  0  0  0  0  0  0  0
    3.6550   13.7560   -1.5000 C   0  0  0  0  0  0  0  0  0  0  0  0
    3.2760   15.0180   -0.7010 C   0  0  0  0  0  0  0  0  0  0  0  0
    2.4970   16.0070   -1.5740 C   0  0  2  0  0  0  0  0  0  0  0  0
    3.4400   16.4610   -2.7400 C   0  0  0  0  0  0  0  0  0  0  0  0
    3.2963   18.2330    1.5606 H   0  0  0  0  0  0  0  0  0  0  0  0
    4.0342   16.9170    0.5858 H   0  0  0  0  0  0  0  0  0  0  0  0
    4.7702   18.5556    0.5858 H   0  0  0  0  0  0  0  0  0  0  0  0
    3.6149   18.5378   -1.4308 H   0  0  0  0  0  0  0  0  0  0  0  0
    2.9378   20.4885   -0.0685 H   0  0  0  0  0  0  0  0  0  0  0  0
    1.6551   19.9487   -1.2545 H   0  0  0  0  0  0  0  0  0  0  0  0
    1.0301   18.5895    1.0898 H   0  0  0  0  0  0  0  0  0  0  0  0
    1.5267   20.2443    1.6394 H   0  0  0  0  0  0  0  0  0  0  0  0
    0.3300   20.8942   -0.3281 H   0  0  0  0  0  0  0  0  0  0  0  0
   -1.4113   17.7414    1.6311 H   0  0  0  0  0  0  0  0  0  0  0  0
   -2.3079   17.4201    0.1081 H   0  0  0  0  0  0  0  0  0  0  0  0
   -0.5116   17.4286    0.1081 H   0  0  0  0  0  0  0  0  0  0  0  0
   -3.3522   20.2165   -0.0224 H   0  0  0  0  0  0  0  0  0  0  0  0
   -2.1500   20.6636   -1.2800 H   0  0  0  0  0  0  0  0  0  0  0  0
   -2.8819   19.0232   -1.2800 H   0  0  0  0  0  0  0  0  0  0  0  0
    1.6323   17.0317    0.1515 H   0  0  0  0  0  0  0  0  0  0  0  0
   -0.0643   18.0445   -1.2380 H   0  0  0  0  0  0  0  0  0  0  0  0
    1.1317   18.5943   -2.4313 H   0  0  0  0  0  0  0  0  0  0  0  0
   -0.6277   16.3650   -2.7490 H   0  0  0  0  0  0  0  0  0  0  0  0
    0.7866   16.6578   -3.7575 H   0  0  0  0  0  0  0  0  0  0  0  0
    0.6906   15.1132    0.0912 H   0  0  0  0  0  0  0  0  0  0  0  0
   -0.7306   15.4726   -0.9470 H   0  0  0  0  0  0  0  0  0  0  0  0
   -0.0118   13.8264   -0.9470 H   0  0  0  0  0  0  0  0  0  0  0  0
    2.0451   14.5900   -3.7920 H   0  0  0  0  0  0  0  0  0  0  0  0
   -0.4945   14.1603   -3.7467 H   0  0  0  0  0  0  0  0  0  0  0  0
    0.6593   12.9667   -4.5425 H   0  0  0  0  0  0  0  0  0  0  0  0
   -1.2824   11.9254   -3.0984 H   0  0  0  0  0  0  0  0  0  0  0  0
    1.6750   12.5704   -0.4266 H   0  0  0  0  0  0  0  0  0  0  0  0
    2.6810   10.2050   -2.1256 H   0  0  0  0  0  0  0  0  0  0  0  0
    3.5510   11.0047   -0.7420 H   0  0  0  0  0  0  0  0  0  0  0  0
    2.5184    8.8554   -0.0826 H   0  0  0  0  0  0  0  0  0  0  0  0
    1.8299   10.2719    0.8041 H   0  0  0  0  0  0  0  0  0  0  0  0
    0.0333    8.8112    0.1723 H   0  0  0  0  0  0  0  0  0  0  0  0
    0.7020    9.2230   -2.5790 H   0  0  0  0  0  0  0  0  0  0  0  0
   -0.4280   10.6561    1.2810 H   0  0  0  0  0  0  0  0  0  0  0  0
   -0.2768   12.2727    0.5127 H   0  0  0  0  0  0  0  0  0  0  0  0
   -1.8593   11.4228    0.5127 H   0  0  0  0  0  0  0  0  0  0  0  0
   -2.4330    9.8360   -0.6836 H   0  0  0  0  0  0  0  0  0  0  0  0
   -2.1942   10.8906   -2.1180 H   0  0  0  0  0  0  0  0  0  0  0  0
   -1.5482    9.2145   -2.1180 H   0  0  0  0  0  0  0  0  0  0  0  0
    3.8856   11.5579   -3.0996 H   0  0  0  0  0  0  0  0  0  0  0  0
    2.4261   11.8167   -4.1141 H   0  0  0  0  0  0  0  0  0  0  0  0
    3.7473   13.0337   -4.1141 H   0  0  0  0  0  0  0  0  0  0  0  0
    4.0512   13.0175   -0.7876 H   0  0  0  0  0  0  0  0  0  0  0  0
    4.3762   14.0996   -2.2562 H   0  0  0  0  0  0  0  0  0  0  0  0
    2.6522   14.7268    0.1570 H   0  0  0  0  0  0  0  0  0  0  0  0
    4.2000   15.5060   -0.3575 H   0  0  0  0  0  0  0  0  0  0  0  0
    4.3561   16.9020   -2.3201 H   0  0  0  0  0  0  0  0  0  0  0  0
    3.7026   15.5906   -3.3592 H   0  0  0  0  0  0  0  0  0  0  0  0
    2.9234   17.2091   -3.3592 H   0  0  0  0  0  0  0  0  0  0  0  0
  1  2  1  0
  2  3  1  0
  3  4  1  0
  4  5  1  0
  5  6  1  0
  6  7  1  0
  7  8  1  0
  7  9  1  0
  2 10  1  0
 10 11  1  0
 11 12  1  0
 12 13  1  0
 13 14  1  1
 13 15  1  0
 15 16  1  0
 16 17  1  0
 17 18  2  0
 18 19  1  0
 19 20  1  0
 20 21  1  0
 21 22  1  0
 22 23  1  0
 22 24  1  0
 24 25  1  0
 24 26  1  0
 19 27  1  0
 27 28  1  6
 27 29  1  0
 29 30  1  0
 30 31  1  0
 31 32  1  6
  7  5  1  0
 31 10  1  0
 31 13  1  0
 27 15  1  0
 24 18  1  0
  1 33  1  0
  1 34  1  0
  1 35  1  0
  2 36  1  6
  3 37  1  0
  3 38  1  0
  4 39  1  0
  4 40  1  0
  5 41  1  6
  8 42  1  0
  8 43  1  0
  8 44  1  0
  9 45  1  0
  9 46  1  0
  9 47  1  0
 10 48  1  1
 11 49  1  0
 11 50  1  0
 12 51  1  0
 12 52  1  0
 14 53  1  0
 14 54  1  0
 14 55  1  0
 15 56  1  6
 16 57  1  0
 16 58  1  0
 17 59  1  0
 19 60  1  1
 20 61  1  0
 20 62  1  0
 21 63  1  0
 21 64  1  0
 22 65  1  1
 23 66  1  0
 25 67  1  0
 25 68  1  0
 25 69  1  0
 26 70  1  0
 26 71  1  0
 26 72  1  0
 28 73  1  0
 28 74  1  0
 28 75  1  0
 29 76  1  0
 29 77  1  0
 30 78  1  0
 30 79  1  0
 32 80  1  0
 32 81  1  0
 32 82  1  0
M  END
>  <meeko>  (2) 
{"is_sidechain": [false], "intermolecular_energy": 2.731, "internal_energy": -0.839}

$$$$
EPH_relaxed_0001_pdb2pqr_Repair_286_r2_0001_out
     RDKit          3D

 82 86  0  0  0  0  0  0  0  0999 V2000
   -1.0920    8.8080   -1.8830 C   0  0  0  0  0  0  0  0  0  0  0  0
   -1.5140    9.2110   -0.4670 C   0  0  2  0  0  0  0  0  0  0  0  0
   -3.0440    9.3440   -0.3330 C   0  0  0  0  0  0  0  0  0  0  0  0
   -3.8270    8.4000   -1.2500 C   0  0  0  0  0  0  0  0  0  0  0  0
   -5.1920    8.1060   -0.7070 C   0  0  2  0  0  0  0  0  0  0  0  0
   -5.4450    6.7200   -0.4410 O   0  0  0  0  0  0  0  0  0  0  0  0
   -6.2450    7.3250   -1.4700 C   0  0  0  0  0  0  0  0  0  0  0  0
   -5.9790    6.7900   -2.8420 C   0  0  0  0  0  0  0  0  0  0  0  0
   -7.6830    7.5010   -1.0900 C   0  0  0  0  0  0  0  0  0  0  0  0
   -0.8400   10.5210   -0.0770 C   0  0  1  0  0  0  0  0  0  0  0  0
    0.0920   10.3710    1.1550 C   0  0  0  0  0  0  0  0  0  0  0  0
    1.2870   11.3320    0.9310 C   0  0  0  0  0  0  0  0  0  0  0  0
    0.8450   12.2380   -0.2420 C   0  0  1  0  0  0  0  0  0  0  0  0
   -0.0680   13.3230    0.4110 C   0  0  0  0  0  0  0  0  0  0  0  0
    1.9920   12.8820   -1.0880 C   0  0  2  0  0  0  0  0  0  0  0  0
    2.9130   13.8410   -0.3150 C   0  0  0  0  0  0  0  0  0  0  0  0
    2.4900   15.2730   -0.3170 C   0  0  0  0  0  0  0  0  0  0  0  0
    1.5780   15.8170   -1.1440 C   0  0  0  0  0  0  0  0  0  0  0  0
    0.9390   14.9900   -2.2670 C   0  0  1  0  0  0  0  0  0  0  0  0
    0.9530   15.8070   -3.5850 C   0  0  0  0  0  0  0  0  0  0  0  0
    0.3050   17.1790   -3.4300 C   0  0  0  0  0  0  0  0  0  0  0  0
    1.0040   17.9940   -2.3450 C   0  0  2  0  0  0  0  0  0  0  0  0
    2.3320   18.2990   -2.7820 O   0  0  0  0  0  0  0  0  0  0  0  0
    1.0590   17.2660   -0.9720 C   0  0  0  0  0  0  0  0  0  0  0  0
   -0.3610   17.2050   -0.3580 C   0  0  0  0  0  0  0  0  0  0  0  0
    1.9130   18.1330   -0.0070 C   0  0  0  0  0  0  0  0  0  0  0  0
    1.5100   13.5190   -2.4540 C   0  0  1  0  0  0  0  0  0  0  0  0
    2.7530   13.5460   -3.3950 C   0  0  0  0  0  0  0  0  0  0  0  0
    0.4250   12.6350   -3.1770 C   0  0  0  0  0  0  0  0  0  0  0  0
   -0.6070   11.9290   -2.2780 C   0  0  0  0  0  0  0  0  0  0  0  0
    0.0830   11.1870   -1.1280 C   0  0  2  0  0  0  0  0  0  0  0  0
    0.9910   10.0750   -1.7540 C   0  0  0  0  0  0  0  0  0  0  0  0
   -0.2975    8.0493   -1.8269 H   0  0  0  0  0  0  0  0  0  0  0  0
   -1.9580    8.3931   -2.4196 H   0  0  0  0  0  0  0  0  0  0  0  0
   -0.7174    9.6922   -2.4196 H   0  0  0  0  0  0  0  0  0  0  0  0
   -1.1919    8.4104    0.2152 H   0  0  0  0  0  0  0  0  0  0  0  0
   -3.3216    9.1255    0.7087 H   0  0  0  0  0  0  0  0  0  0  0  0
   -3.3046   10.3704   -0.6306 H   0  0  0  0  0  0  0  0  0  0  0  0
   -3.9304    8.8688   -2.2397 H   0  0  0  0  0  0  0  0  0  0  0  0
   -3.2738    7.4517   -1.3189 H   0  0  0  0  0  0  0  0  0  0  0  0
   -5.2226    9.0780   -0.1928 H   0  0  0  0  0  0  0  0  0  0  0  0
   -5.4905    5.8075   -2.7641 H   0  0  0  0  0  0  0  0  0  0  0  0
   -6.9297    6.6848   -3.3852 H   0  0  0  0  0  0  0  0  0  0  0  0
   -5.3213    7.4845   -3.3852 H   0  0  0  0  0  0  0  0  0  0  0  0
   -7.7739    7.5121    0.0062 H   0  0  0  0  0  0  0  0  0  0  0  0
   -8.0565    8.4516   -1.4985 H   0  0  0  0  0  0  0  0  0  0  0  0
   -8.2747    6.6686   -1.4985 H   0  0  0  0  0  0  0  0  0  0  0  0
   -1.7316   11.1434    0.0892 H   0  0  0  0  0  0  0  0  0  0  0  0
   -0.4474   10.6450    2.0737 H   0  0  0  0  0  0  0  0  0  0  0  0
    0.4360    9.3321    1.2660 H   0  0  0  0  0  0  0  0  0  0  0  0
    1.4780   11.9310    1.8336 H   0  0  0  0  0  0  0  0  0  0  0  0
    2.2205   10.7927    0.7125 H   0  0  0  0  0  0  0  0  0  0  0  0
   -0.0031   13.2459    1.5064 H   0  0  0  0  0  0  0  0  0  0  0  0
    0.2651   14.3221    0.0934 H   0  0  0  0  0  0  0  0  0  0  0  0
   -1.1093   13.1655    0.0934 H   0  0  0  0  0  0  0  0  0  0  0  0
    2.6142   12.0116   -1.3434 H   0  0  0  0  0  0  0  0  0  0  0  0
    2.9569   13.5012    0.7303 H   0  0  0  0  0  0  0  0  0  0  0  0
    3.8846   13.8104   -0.8299 H   0  0  0  0  0  0  0  0  0  0  0  0
    2.9635   15.9393    0.4192 H   0  0  0  0  0  0  0  0  0  0  0  0
   -0.0995   14.8045   -1.9553 H   0  0  0  0  0  0  0  0  0  0  0  0
    1.9968   15.9441   -3.9037 H   0  0  0  0  0  0  0  0  0  0  0  0
    0.3719   15.2459   -4.3316 H   0  0  0  0  0  0  0  0  0  0  0  0
    0.3731   17.7192   -4.3858 H   0  0  0  0  0  0  0  0  0  0  0  0
   -0.7470   17.0393   -3.1407 H   0  0  0  0  0  0  0  0  0  0  0  0
    0.4165   18.9110   -2.1901 H   0  0  0  0  0  0  0  0  0  0  0  0
    2.9410   17.7070   -2.3080 H   0  0  0  0  0  0  0  0  0  0  0  0
   -0.2864   17.2082    0.7395 H   0  0  0  0  0  0  0  0  0  0  0  0
   -0.9413   18.0790   -0.6886 H   0  0  0  0  0  0  0  0  0  0  0  0
   -0.8642   16.2844   -0.6886 H   0  0  0  0  0  0  0  0  0  0  0  0
    1.6624   17.8786    1.0334 H   0  0  0  0  0  0  0  0  0  0  0  0
    2.9806   17.9369   -0.1855 H   0  0  0  0  0  0  0  0  0  0  0  0
    1.7008   19.1975   -0.1855 H   0  0  0  0  0  0  0  0  0  0  0  0
    3.6710   13.5659   -2.7893 H   0  0  0  0  0  0  0  0  0  0  0  0
    2.7519   12.6476   -4.0298 H   0  0  0  0  0  0  0  0  0  0  0  0
    2.7129   14.4435   -4.0298 H   0  0  0  0  0  0  0  0  0  0  0  0
   -0.1277   13.2868   -3.8696 H   0  0  0  0  0  0  0  0  0  0  0  0
    0.9897   11.8234   -3.6592 H   0  0  0  0  0  0  0  0  0  0  0  0
   -1.2941   12.6799   -1.8607 H   0  0  0  0  0  0  0  0  0  0  0  0
   -1.1591   11.1973   -2.8860 H   0  0  0  0  0  0  0  0  0  0  0  0
    1.4658    9.4936   -0.9499 H   0  0  0  0  0  0  0  0  0  0  0  0
    0.3768    9.4071   -2.3759 H   0  0  0  0  0  0  0  0  0  0  0  0
    1.7682   10.5433   -2.3759 H   0  0  0  0  0  0  0  0  0  0  0  0
  1  2  1  0
  2  3  1  0
  3  4  1  0
  4  5  1  0
  5  6  1  0
  6  7  1  0
  7  8  1  0
  7  9  1  0
  2 10  1  0
 10 11  1  0
 11 12  1  0
 12 13  1  0
 13 14  1  1
 13 15  1  0
 15 16  1  0
 16 17  1  0
 17 18  2  0
 18 19  1  0
 19 20  1  0
 20 21  1  0
 21 22  1  0
 22 23  1  0
 22 24  1  0
 24 25  1  0
 24 26  1  0
 19 27  1  0
 27 28  1  6
 27 29  1  0
 29 30  1  0
 30 31  1  0
 31 32  1  6
  7  5  1  0
 31 10  1  0
 31 13  1  0
 27 15  1  0
 24 18  1  0
  1 33  1  0
  1 34  1  0
  1 35  1  0
  2 36  1  1
  3 37  1  0
  3 38  1  0
  4 39  1  0
  4 40  1  0
  5 41  1  1
  8 42  1  0
  8 43  1  0
  8 44  1  0
  9 45  1  0
  9 46  1  0
  9 47  1  0
 10 48  1  1
 11 49  1  0
 11 50  1  0
 12 51  1  0
 12 52  1  0
 14 53  1  0
 14 54  1  0
 14 55  1  0
 15 56  1  6
 16 57  1  0
 16 58  1  0
 17 59  1  0
 19 60  1  1
 20 61  1  0
 20 62  1  0
 21 63  1  0
 21 64  1  0
 22 65  1  1
 23 66  1  0
 25 67  1  0
 25 68  1  0
 25 69  1  0
 26 70  1  0
 26 71  1  0
 26 72  1  0
 28 73  1  0
 28 74  1  0
 28 75  1  0
 29 76  1  0
 29 77  1  0
 30 78  1  0
 30 79  1  0
 32 80  1  0
 32 81  1  0
 32 82  1  0
M  END
>  <meeko>  (3) 
{"is_sidechain": [false], "intermolecular_energy": 2.731, "internal_energy": -0.839}

$$$$
EPH_relaxed_0001_pdb2pqr_Repair_286_r2_0001_out
     RDKit          3D

 82 86  0  0  0  0  0  0  0  0999 V2000
    3.5260   18.0750    0.7560 C   0  0  0  0  0  0  0  0  0  0  0  0
    3.5040   17.1730   -0.4810 C   0  0  2  0  0  0  0  0  0  0  0  0
    3.4540   17.9850   -1.7910 C   0  0  0  0  0  0  0  0  0  0  0  0
    2.3120   19.0030   -1.8410 C   0  0  0  0  0  0  0  0  0  0  0  0
    1.5600   18.9310   -3.1350 C   0  0  2  0  0  0  0  0  0  0  0  0
    1.0730   20.1900   -3.6160 O   0  0  0  0  0  0  0  0  0  0  0  0
    0.0760   19.2200   -3.2580 C   0  0  0  0  0  0  0  0  0  0  0  0
   -0.7460   19.6030   -2.0670 C   0  0  0  0  0  0  0  0  0  0  0  0
   -0.6680   18.6600   -4.4300 C   0  0  0  0  0  0  0  0  0  0  0  0
    2.3140   16.2230   -0.4110 C   0  0  1  0  0  0  0  0  0  0  0  0
    0.9560   16.9540   -0.5830 C   0  0  0  0  0  0  0  0  0  0  0  0
    0.0210   15.9860   -1.3520 C   0  0  0  0  0  0  0  0  0  0  0  0
    0.7480   14.6220   -1.3060 C   0  0  1  0  0  0  0  0  0  0  0  0
    0.4090   14.0340    0.1000 C   0  0  0  0  0  0  0  0  0  0  0  0
    0.4030   13.6160   -2.4510 C   0  0  2  0  0  0  0  0  0  0  0  0
   -1.0650   13.1580   -2.4970 C   0  0  0  0  0  0  0  0  0  0  0  0
   -1.3750   11.9290   -1.7070 C   0  0  0  0  0  0  0  0  0  0  0  0
   -0.4670   11.0620   -1.2220 C   0  0  0  0  0  0  0  0  0  0  0  0
    1.0250   11.2240   -1.5390 C   0  0  1  0  0  0  0  0  0  0  0  0
    1.6170    9.8530   -1.9610 C   0  0  0  0  0  0  0  0  0  0  0  0
    1.3550    8.7610   -0.9290 C   0  0  0  0  0  0  0  0  0  0  0  0
   -0.1420    8.5890   -0.6840 C   0  0  2  0  0  0  0  0  0  0  0  0
   -0.7480    8.0780   -1.8750 O   0  0  0  0  0  0  0  0  0  0  0  0
   -0.8480    9.9080   -0.2620 C   0  0  0  0  0  0  0  0  0  0  0  0
   -0.4070   10.3000    1.1690 C   0  0  0  0  0  0  0  0  0  0  0  0
   -2.3740    9.6280   -0.1850 C   0  0  0  0  0  0  0  0  0  0  0  0
    1.3960   12.3880   -2.5560 C   0  0  1  0  0  0  0  0  0  0  0  0
    1.3020   11.8630   -4.0220 C   0  0  0  0  0  0  0  0  0  0  0  0
    2.8960   12.8100   -2.3310 C   0  0  0  0  0  0  0  0  0  0  0  0
    3.1600   13.8940   -1.2690 C   0  0  0  0  0  0  0  0  0  0  0  0
    2.2370   15.0990   -1.4740 C   0  0  2  0  0  0  0  0  0  0  0  0
    2.5710   15.7250   -2.8710 C   0  0  0  0  0  0  0  0  0  0  0  0
    3.5108   17.4534    1.6634 H   0  0  0  0  0  0  0  0  0  0  0  0
    4.4394   18.6879    0.7467 H   0  0  0  0  0  0  0  0  0  0  0  0
    2.6436   18.7317    0.7467 H   0  0  0  0  0  0  0  0  0  0  0  0
    4.4403   16.5957   -0.4861 H   0  0  0  0  0  0  0  0  0  0  0  0
    4.4058   18.5253   -1.9012 H   0  0  0  0  0  0  0  0  0  0  0  0
    3.2813   17.2680   -2.6071 H   0  0  0  0  0  0  0  0  0  0  0  0
    1.6168   18.7995   -1.0132 H   0  0  0  0  0  0  0  0  0  0  0  0
    2.7466   20.0097   -1.7532 H   0  0  0  0  0  0  0  0  0  0  0  0
    2.1776   18.0858   -3.4731 H   0  0  0  0  0  0  0  0  0  0  0  0
   -0.1994   19.3483   -1.1470 H   0  0  0  0  0  0  0  0  0  0  0  0
   -0.9420   20.6852   -2.0894 H   0  0  0  0  0  0  0  0  0  0  0  0
   -1.7006   19.0569   -2.0894 H   0  0  0  0  0  0  0  0  0  0  0  0
   -1.4990   18.0345   -4.0719 H   0  0  0  0  0  0  0  0  0  0  0  0
   -1.0660   19.4846   -5.0397 H   0  0  0  0  0  0  0  0  0  0  0  0
    0.0143   18.0494   -5.0397 H   0  0  0  0  0  0  0  0  0  0  0  0
    2.4842   15.7876    0.5847 H   0  0  0  0  0  0  0  0  0  0  0  0
    0.5271   17.1928    0.4014 H   0  0  0  0  0  0  0  0  0  0  0  0
    1.0830   17.8991   -1.1313 H   0  0  0  0  0  0  0  0  0  0  0  0
   -0.9600   15.9199   -0.8587 H   0  0  0  0  0  0  0  0  0  0  0  0
   -0.1709   16.3217   -2.3818 H   0  0  0  0  0  0  0  0  0  0  0  0
    0.7959   14.7050    0.8811 H   0  0  0  0  0  0  0  0  0  0  0  0
   -0.6820   13.9399    0.2048 H   0  0  0  0  0  0  0  0  0  0  0  0
    0.8742   13.0427    0.2048 H   0  0  0  0  0  0  0  0  0  0  0  0
    0.5534   14.2258   -3.3540 H   0  0  0  0  0  0  0  0  0  0  0  0
   -1.6889   13.9772   -2.1100 H   0  0  0  0  0  0  0  0  0  0  0  0
   -1.2720   12.9048   -3.5473 H   0  0  0  0  0  0  0  0  0  0  0  0
   -2.4347   11.7144   -1.5045 H   0  0  0  0  0  0  0  0  0  0  0  0
    1.4985   11.5638   -0.6061 H   0  0  0  0  0  0  0  0  0  0  0  0
    1.1628    9.5517   -2.9165 H   0  0  0  0  0  0  0  0  0  0  0  0
    2.7067    9.9730   -2.0512 H   0  0  0  0  0  0  0  0  0  0  0  0
    1.7710    7.8113   -1.2964 H   0  0  0  0  0  0  0  0  0  0  0  0
    1.8345    9.0506    0.0177 H   0  0  0  0  0  0  0  0  0  0  0  0
   -0.2615    7.8870    0.1544 H   0  0  0  0  0  0  0  0  0  0  0  0
   -0.0330    7.8220   -2.4820 H   0  0  0  0  0  0  0  0  0  0  0  0
   -1.0191    9.7559    1.9033 H   0  0  0  0  0  0  0  0  0  0  0  0
    0.6525   10.0401    1.3103 H   0  0  0  0  0  0  0  0  0  0  0  0
   -0.5409   11.3826    1.3103 H   0  0  0  0  0  0  0  0  0  0  0  0
   -2.6836    9.5712    0.8690 H   0  0  0  0  0  0  0  0  0  0  0  0
   -2.9216   10.4407   -0.6847 H   0  0  0  0  0  0  0  0  0  0  0  0
   -2.5974    8.6739   -0.6847 H   0  0  0  0  0  0  0  0  0  0  0  0
    1.1081   10.7803   -4.0120 H   0  0  0  0  0  0  0  0  0  0  0  0
    0.4817   12.3776   -4.5439 H   0  0  0  0  0  0  0  0  0  0  0  0
    2.2499   12.0610   -4.5439 H   0  0  0  0  0  0  0  0  0  0  0  0
    3.4541   11.9099   -2.0338 H   0  0  0  0  0  0  0  0  0  0  0  0
    3.2158   13.2565   -3.2841 H   0  0  0  0  0  0  0  0  0  0  0  0
    2.9815   13.4699   -0.2699 H   0  0  0  0  0  0  0  0  0  0  0  0
    4.2028   14.2310   -1.3637 H   0  0  0  0  0  0  0  0  0  0  0  0
    3.0844   16.6873   -2.7283 H   0  0  0  0  0  0  0  0  0  0  0  0
    3.2239   15.0408   -3.4327 H   0  0  0  0  0  0  0  0  0  0  0  0
    1.6391   15.8864   -3.4327 H   0  0  0  0  0  0  0  0  0  0  0  0
  1  2  1  0
  2  3  1  0
  3  4  1  0
  4  5  1  0
  5  6  1  0
  6  7  1  0
  7  8  1  0
  7  9  1  0
  2 10  1  0
 10 11  1  0
 11 12  1  0
 12 13  1  0
 13 14  1  1
 13 15  1  0
 15 16  1  0
 16 17  1  0
 17 18  2  0
 18 19  1  0
 19 20  1  0
 20 21  1  0
 21 22  1  0
 22 23  1  0
 22 24  1  0
 24 25  1  0
 24 26  1  0
 19 27  1  0
 27 28  1  6
 27 29  1  0
 29 30  1  0
 30 31  1  0
 31 32  1  6
  7  5  1  0
 31 10  1  0
 31 13  1  0
 27 15  1  0
 24 18  1  0
  1 33  1  0
  1 34  1  0
  1 35  1  0
  2 36  1  6
  3 37  1  0
  3 38  1  0
  4 39  1  0
  4 40  1  0
  5 41  1  6
  8 42  1  0
  8 43  1  0
  8 44  1  0
  9 45  1  0
  9 46  1  0
  9 47  1  0
 10 48  1  1
 11 49  1  0
 11 50  1  0
 12 51  1  0
 12 52  1  0
 14 53  1  0
 14 54  1  0
 14 55  1  0
 15 56  1  6
 16 57  1  0
 16 58  1  0
 17 59  1  0
 19 60  1  1
 20 61  1  0
 20 62  1  0
 21 63  1  0
 21 64  1  0
 22 65  1  1
 23 66  1  0
 25 67  1  0
 25 68  1  0
 25 69  1  0
 26 70  1  0
 26 71  1  0
 26 72  1  0
 28 73  1  0
 28 74  1  0
 28 75  1  0
 29 76  1  0
 29 77  1  0
 30 78  1  0
 30 79  1  0
 32 80  1  0
 32 81  1  0
 32 82  1  0
M  END
>  <meeko>  (4) 
{"is_sidechain": [false], "intermolecular_energy": 2.731, "internal_energy": -0.839}

$$$$
EPH_relaxed_0001_pdb2pqr_Repair_286_r2_0001_out
     RDKit          3D

 82 86  0  0  0  0  0  0  0  0999 V2000
    2.3510   18.2260   -2.2450 C   0  0  0  0  0  0  0  0  0  0  0  0
    1.7790   17.4360   -1.0650 C   0  0  2  0  0  0  0  0  0  0  0  0
    2.8730   17.0120   -0.0650 C   0  0  0  0  0  0  0  0  0  0  0  0
    3.8640   18.1290    0.2730 C   0  0  0  0  0  0  0  0  0  0  0  0
    3.5940   18.7210    1.6230 C   0  0  2  0  0  0  0  0  0  0  0  0
    3.9630   20.1000    1.7560 O   0  0  0  0  0  0  0  0  0  0  0  0
    4.6880   19.1680    2.5750 C   0  0  0  0  0  0  0  0  0  0  0  0
    6.1350   19.0400    2.2150 C   0  0  0  0  0  0  0  0  0  0  0  0
    4.3690   19.2710    4.0330 C   0  0  0  0  0  0  0  0  0  0  0  0
    1.0350   16.2070   -1.5750 C   0  0  1  0  0  0  0  0  0  0  0  0
    0.5130   16.3830   -3.0250 C   0  0  0  0  0  0  0  0  0  0  0  0
    0.6150   14.9960   -3.7100 C   0  0  0  0  0  0  0  0  0  0  0  0
    0.8730   14.0070   -2.5490 C   0  0  1  0  0  0  0  0  0  0  0  0
   -0.5340   13.7380   -1.9300 C   0  0  0  0  0  0  0  0  0  0  0  0
    1.6020   12.6760   -2.9250 C   0  0  2  0  0  0  0  0  0  0  0  0
    0.8410   11.7710   -3.9100 C   0  0  0  0  0  0  0  0  0  0  0  0
   -0.0680   10.7670   -3.2830 C   0  0  0  0  0  0  0  0  0  0  0  0
   -0.0560   10.4040   -1.9870 C   0  0  0  0  0  0  0  0  0  0  0  0
    1.0070   10.9510   -1.0250 C   0  0  1  0  0  0  0  0  0  0  0  0
    1.5910    9.7870   -0.1820 C   0  0  0  0  0  0  0  0  0  0  0  0
    0.5100    8.9860    0.5370 C   0  0  0  0  0  0  0  0  0  0  0  0
   -0.4950    8.4100   -0.4570 C   0  0  2  0  0  0  0  0  0  0  0  0
    0.1660    7.4310   -1.2650 O   0  0  0  0  0  0  0  0  0  0  0  0
   -1.1430    9.4890   -1.3690 C   0  0  0  0  0  0  0  0  0  0  0  0
   -2.1010   10.3710   -0.5310 C   0  0  0  0  0  0  0  0  0  0  0  0
   -2.0270    8.7610   -2.4170 C   0  0  0  0  0  0  0  0  0  0  0  0
    2.1360   11.8550   -1.6820 C   0  0  1  0  0  0  0  0  0  0  0  0
    3.2980   10.9580   -2.2070 C   0  0  0  0  0  0  0  0  0  0  0  0
    2.7590   12.7850   -0.5740 C   0  0  0  0  0  0  0  0  0  0  0  0
    2.0640   14.1390   -0.3330 C   0  0  0  0  0  0  0  0  0  0  0  0
    1.8280   14.8780   -1.6530 C   0  0  2  0  0  0  0  0  0  0  0  0
    3.2270   15.1810   -2.2890 C   0  0  0  0  0  0  0  0  0  0  0  0
    2.9568   19.0627   -1.8669 H   0  0  0  0  0  0  0  0  0  0  0  0
    2.9811   17.5647   -2.8580 H   0  0  0  0  0  0  0  0  0  0  0  0
    1.5261   18.6182   -2.8580 H   0  0  0  0  0  0  0  0  0  0  0  0
    1.0819   18.0979   -0.5302 H   0  0  0  0  0  0  0  0  0  0  0  0
    2.3855   16.6868    0.8659 H   0  0  0  0  0  0  0  0  0  0  0  0
    3.4487   16.2047   -0.5414 H   0  0  0  0  0  0  0  0  0  0  0  0
    4.8835   17.7161    0.2624 H   0  0  0  0  0  0  0  0  0  0  0  0
    3.7526   18.9246   -0.4784 H   0  0  0  0  0  0  0  0  0  0  0  0
    2.7181   18.0697    1.7596 H   0  0  0  0  0  0  0  0  0  0  0  0
    6.7380   18.9867    3.1334 H   0  0  0  0  0  0  0  0  0  0  0  0
    6.2861   18.1250    1.6235 H   0  0  0  0  0  0  0  0  0  0  0  0
    6.4444   19.9143    1.6235 H   0  0  0  0  0  0  0  0  0  0  0  0
    5.2526   18.9857    4.6227 H   0  0  0  0  0  0  0  0  0  0  0  0
    4.0859   20.3062    4.2742 H   0  0  0  0  0  0  0  0  0  0  0  0
    3.5339   18.5968    4.2742 H   0  0  0  0  0  0  0  0  0  0  0  0
    0.2515   16.1338   -0.8064 H   0  0  0  0  0  0  0  0  0  0  0  0
   -0.5331   16.7228   -3.0121 H   0  0  0  0  0  0  0  0  0  0  0  0
    1.1035   17.1355   -3.5682 H   0  0  0  0  0  0  0  0  0  0  0  0
   -0.3227   14.7493   -4.2295 H   0  0  0  0  0  0  0  0  0  0  0  0
    1.4088   14.9632   -4.4708 H   0  0  0  0  0  0  0  0  0  0  0  0
   -0.4605   13.7520   -0.8325 H   0  0  0  0  0  0  0  0  0  0  0  0
   -1.2353   14.5183   -2.2606 H   0  0  0  0  0  0  0  0  0  0  0  0
   -0.8980   12.7540   -2.2606 H   0  0  0  0  0  0  0  0  0  0  0  0
    2.4851   13.0381   -3.4718 H   0  0  0  0  0  0  0  0  0  0  0  0
    0.2357   12.4151   -4.5648 H   0  0  0  0  0  0  0  0  0  0  0  0
    1.6081   11.1931   -4.4464 H   0  0  0  0  0  0  0  0  0  0  0  0
   -0.8102   10.2830   -3.9349 H   0  0  0  0  0  0  0  0  0  0  0  0
    0.4854   11.6621   -0.3676 H   0  0  0  0  0  0  0  0  0  0  0  0
    2.1451    9.1112   -0.8500 H   0  0  0  0  0  0  0  0  0  0  0  0
    2.2468   10.2259    0.5844 H   0  0  0  0  0  0  0  0  0  0  0  0
    0.9818    8.1609    1.0907 H   0  0  0  0  0  0  0  0  0  0  0  0
   -0.0235    9.6568    1.2265 H   0  0  0  0  0  0  0  0  0  0  0  0
   -1.3128    7.9594    0.1245 H   0  0  0  0  0  0  0  0  0  0  0  0
    0.9970    7.8230   -1.5820 H   0  0  0  0  0  0  0  0  0  0  0  0
   -1.9149   10.1997    0.5395 H   0  0  0  0  0  0  0  0  0  0  0  0
   -1.9260   11.4307   -0.7686 H   0  0  0  0  0  0  0  0  0  0  0  0
   -3.1426   10.1092   -0.7686 H   0  0  0  0  0  0  0  0  0  0  0  0
   -2.7763    8.1440   -1.8995 H   0  0  0  0  0  0  0  0  0  0  0  0
   -2.5365    9.5049   -3.0471 H   0  0  0  0  0  0  0  0  0  0  0  0
   -1.3946    8.1183   -3.0471 H   0  0  0  0  0  0  0  0  0  0  0  0
    3.8477   10.5336   -1.3540 H   0  0  0  0  0  0  0  0  0  0  0  0
    2.8842   10.1428   -2.8187 H   0  0  0  0  0  0  0  0  0  0  0  0
    3.9819   11.5647   -2.8187 H   0  0  0  0  0  0  0  0  0  0  0  0
    2.7429   12.2290    0.3750 H   0  0  0  0  0  0  0  0  0  0  0  0
    3.7640   13.0385   -0.9423 H   0  0  0  0  0  0  0  0  0  0  0  0
    1.0959   13.9637    0.1591 H   0  0  0  0  0  0  0  0  0  0  0  0
    2.7137   14.7577    0.3034 H   0  0  0  0  0  0  0  0  0  0  0  0
    3.9660   15.3411   -1.4901 H   0  0  0  0  0  0  0  0  0  0  0  0
    3.5388   14.3296   -2.9118 H   0  0  0  0  0  0  0  0  0  0  0  0
    3.1586   16.0852   -2.9118 H   0  0  0  0  0  0  0  0  0  0  0  0
  1  2  1  0
  2  3  1  0
  3  4  1  0
  4  5  1  0
  5  6  1  0
  6  7  1  0
  7  8  1  0
  7  9  1  0
  2 10  1  0
 10 11  1  0
 11 12  1  0
 12 13  1  0
 13 14  1  1
 13 15  1  0
 15 16  1  0
 16 17  1  0
 17 18  2  0
 18 19  1  0
 19 20  1  0
 20 21  1  0
 21 22  1  0
 22 23  1  0
 22 24  1  0
 24 25  1  0
 24 26  1  0
 19 27  1  0
 27 28  1  6
 27 29  1  0
 29 30  1  0
 30 31  1  0
 31 32  1  6
  7  5  1  0
 31 10  1  0
 31 13  1  0
 27 15  1  0
 24 18  1  0
  1 33  1  0
  1 34  1  0
  1 35  1  0
  2 36  1  1
  3 37  1  0
  3 38  1  0
  4 39  1  0
  4 40  1  0
  5 41  1  1
  8 42  1  0
  8 43  1  0
  8 44  1  0
  9 45  1  0
  9 46  1  0
  9 47  1  0
 10 48  1  1
 11 49  1  0
 11 50  1  0
 12 51  1  0
 12 52  1  0
 14 53  1  0
 14 54  1  0
 14 55  1  0
 15 56  1  6
 16 57  1  0
 16 58  1  0
 17 59  1  0
 19 60  1  1
 20 61  1  0
 20 62  1  0
 21 63  1  0
 21 64  1  0
 22 65  1  1
 23 66  1  0
 25 67  1  0
 25 68  1  0
 25 69  1  0
 26 70  1  0
 26 71  1  0
 26 72  1  0
 28 73  1  0
 28 74  1  0
 28 75  1  0
 29 76  1  0
 29 77  1  0
 30 78  1  0
 30 79  1  0
 32 80  1  0
 32 81  1  0
 32 82  1  0
M  END
>  <meeko>  (5) 
{"is_sidechain": [false], "intermolecular_energy": 2.731, "internal_energy": -0.839}

$$$$
EPH_relaxed_0001_pdb2pqr_Repair_286_r2_0001_out
     RDKit          3D

 82 86  0  0  0  0  0  0  0  0999 V2000
   -0.6560    7.9070   -0.5390 C   0  0  0  0  0  0  0  0  0  0  0  0
   -1.0840    9.2680    0.0180 C   0  0  2  0  0  0  0  0  0  0  0  0
   -2.3530    9.8050   -0.6730 C   0  0  0  0  0  0  0  0  0  0  0  0
   -3.6560    9.3210   -0.0290 C   0  0  0  0  0  0  0  0  0  0  0  0
   -4.0520    7.9660   -0.5320 C   0  0  2  0  0  0  0  0  0  0  0  0
   -4.1720    7.8670   -1.9570 O   0  0  0  0  0  0  0  0  0  0  0  0
   -5.3810    7.6790   -1.2050 C   0  0  0  0  0  0  0  0  0  0  0  0
   -6.4000    8.7560   -1.4110 C   0  0  0  0  0  0  0  0  0  0  0  0
   -5.8870    6.2700   -1.2190 C   0  0  0  0  0  0  0  0  0  0  0  0
    0.0540   10.2710   -0.1310 C   0  0  1  0  0  0  0  0  0  0  0  0
    1.4520    9.5980   -0.1070 C   0  0  0  0  0  0  0  0  0  0  0  0
    2.3530   10.4030   -1.0770 C   0  0  0  0  0  0  0  0  0  0  0  0
    1.5550   11.6950   -1.3700 C   0  0  1  0  0  0  0  0  0  0  0  0
    1.8300   12.6220   -0.1450 C   0  0  0  0  0  0  0  0  0  0  0  0
    1.8750   12.4130   -2.7210 C   0  0  2  0  0  0  0  0  0  0  0  0
    3.3180   12.9280   -2.8610 C   0  0  0  0  0  0  0  0  0  0  0  0
    3.5450   14.3260   -2.3880 C   0  0  0  0  0  0  0  0  0  0  0  0
    2.5820   15.2330   -2.1370 C   0  0  0  0  0  0  0  0  0  0  0  0
    1.1080   14.9160   -2.4210 C   0  0  1  0  0  0  0  0  0  0  0  0
    0.4570   16.1090   -3.1680 C   0  0  0  0  0  0  0  0  0  0  0  0
    0.6370   17.4310   -2.4280 C   0  0  0  0  0  0  0  0  0  0  0  0
    2.1170   17.7400   -2.2160 C   0  0  2  0  0  0  0  0  0  0  0  0
    2.7240   17.9820   -3.4890 O   0  0  0  0  0  0  0  0  0  0  0  0
    2.8810   16.6030   -1.4810 C   0  0  0  0  0  0  0  0  0  0  0  0
    2.4270   16.5430   -0.0020 C   0  0  0  0  0  0  0  0  0  0  0  0
    4.3880   16.9780   -1.4570 C   0  0  0  0  0  0  0  0  0  0  0  0
    0.8230   13.5220   -3.1300 C   0  0  1  0  0  0  0  0  0  0  0  0
    0.9240   13.6830   -4.6780 C   0  0  0  0  0  0  0  0  0  0  0  0
   -0.6580   13.0840   -2.8250 C   0  0  0  0  0  0  0  0  0  0  0  0
   -0.8910   12.2740   -1.5360 C   0  0  0  0  0  0  0  0  0  0  0  0
    0.0980   11.1090   -1.4340 C   0  0  2  0  0  0  0  0  0  0  0  0
   -0.1700   10.1470   -2.6410 C   0  0  0  0  0  0  0  0  0  0  0  0
   -0.4404    7.2214    0.2937 H   0  0  0  0  0  0  0  0  0  0  0  0
   -1.4669    7.4916   -1.1554 H   0  0  0  0  0  0  0  0  0  0  0  0
    0.2467    8.0305   -1.1554 H   0  0  0  0  0  0  0  0  0  0  0  0
   -1.3215    9.1301    1.0832 H   0  0  0  0  0  0  0  0  0  0  0  0
   -2.3324   10.9040   -0.6316 H   0  0  0  0  0  0  0  0  0  0  0  0
   -2.3432    9.4238   -1.7048 H   0  0  0  0  0  0  0  0  0  0  0  0
   -3.5177    9.2704    1.0611 H   0  0  0  0  0  0  0  0  0  0  0  0
   -4.4535   10.0314   -0.2922 H   0  0  0  0  0  0  0  0  0  0  0  0
   -3.5260    7.4775    0.3015 H   0  0  0  0  0  0  0  0  0  0  0  0
   -6.7477    9.1235   -0.4342 H   0  0  0  0  0  0  0  0  0  0  0  0
   -5.9482    9.5853   -1.9751 H   0  0  0  0  0  0  0  0  0  0  0  0
   -7.2530    8.3507   -1.9751 H   0  0  0  0  0  0  0  0  0  0  0  0
   -6.0142    5.9158   -0.1854 H   0  0  0  0  0  0  0  0  0  0  0  0
   -6.8546    6.2330   -1.7410 H   0  0  0  0  0  0  0  0  0  0  0  0
   -5.1640    5.6259   -1.7410 H   0  0  0  0  0  0  0  0  0  0  0  0
   -0.1619   10.9222    0.7288 H   0  0  0  0  0  0  0  0  0  0  0  0
    1.8693    9.6279    0.9103 H   0  0  0  0  0  0  0  0  0  0  0  0
    1.3875    8.5431   -0.4119 H   0  0  0  0  0  0  0  0  0  0  0  0
    3.3172   10.6410   -0.6040 H   0  0  0  0  0  0  0  0  0  0  0  0
    2.5866    9.8404   -1.9930 H   0  0  0  0  0  0  0  0  0  0  0  0
    1.6631   12.0594    0.7854 H   0  0  0  0  0  0  0  0  0  0  0  0
    2.8714   12.9746   -0.1785 H   0  0  0  0  0  0  0  0  0  0  0  0
    1.1493   13.4855   -0.1785 H   0  0  0  0  0  0  0  0  0  0  0  0
    1.7781   11.5959   -3.4511 H   0  0  0  0  0  0  0  0  0  0  0  0
    3.9742   12.2623   -2.2812 H   0  0  0  0  0  0  0  0  0  0  0  0
    3.5363   12.9323   -3.9391 H   0  0  0  0  0  0  0  0  0  0  0  0
    4.5871   14.6416   -2.2314 H   0  0  0  0  0  0  0  0  0  0  0  0
    0.6297   14.7851   -1.4391 H   0  0  0  0  0  0  0  0  0  0  0  0
    0.9182   16.1961   -4.1628 H   0  0  0  0  0  0  0  0  0  0  0  0
   -0.6226   15.9100   -3.2383 H   0  0  0  0  0  0  0  0  0  0  0  0
    0.1814   18.2393   -3.0188 H   0  0  0  0  0  0  0  0  0  0  0  0
    0.1502   17.3523   -1.4447 H   0  0  0  0  0  0  0  0  0  0  0  0
    2.1795   18.6284   -1.5704 H   0  0  0  0  0  0  0  0  0  0  0  0
    2.8780   18.9390   -3.5640 H   0  0  0  0  0  0  0  0  0  0  0  0
    3.3016   16.6586    0.6550 H   0  0  0  0  0  0  0  0  0  0  0  0
    1.7107   17.3543    0.1949 H   0  0  0  0  0  0  0  0  0  0  0  0
    1.9461   15.5735    0.1949 H   0  0  0  0  0  0  0  0  0  0  0  0
    4.7282   17.0627   -0.4144 H   0  0  0  0  0  0  0  0  0  0  0  0
    4.9684   16.1969   -1.9698 H   0  0  0  0  0  0  0  0  0  0  0  0
    4.5347   17.9400   -1.9698 H   0  0  0  0  0  0  0  0  0  0  0  0
    1.4948   14.5928   -4.9155 H   0  0  0  0  0  0  0  0  0  0  0  0
    1.4351   12.8076   -5.1051 H   0  0  0  0  0  0  0  0  0  0  0  0
   -0.0866   13.7622   -5.1051 H   0  0  0  0  0  0  0  0  0  0  0  0
   -1.2682   13.9969   -2.7593 H   0  0  0  0  0  0  0  0  0  0  0  0
   -0.9320   12.4045   -3.6455 H   0  0  0  0  0  0  0  0  0  0  0  0
   -0.7590   12.9351   -0.6668 H   0  0  0  0  0  0  0  0  0  0  0  0
   -1.9123   11.8660   -1.5581 H   0  0  0  0  0  0  0  0  0  0  0  0
   -0.4472    9.1521   -2.2624 H   0  0  0  0  0  0  0  0  0  0  0  0
   -0.9907   10.5477   -3.2541 H   0  0  0  0  0  0  0  0  0  0  0  0
    0.7397   10.0657   -3.2541 H   0  0  0  0  0  0  0  0  0  0  0  0
  1  2  1  0
  2  3  1  0
  3  4  1  0
  4  5  1  0
  5  6  1  0
  6  7  1  0
  7  8  1  0
  7  9  1  0
  2 10  1  0
 10 11  1  0
 11 12  1  0
 12 13  1  0
 13 14  1  1
 13 15  1  0
 15 16  1  0
 16 17  1  0
 17 18  2  0
 18 19  1  0
 19 20  1  0
 20 21  1  0
 21 22  1  0
 22 23  1  0
 22 24  1  0
 24 25  1  0
 24 26  1  0
 19 27  1  0
 27 28  1  6
 27 29  1  0
 29 30  1  0
 30 31  1  0
 31 32  1  6
  7  5  1  0
 31 10  1  0
 31 13  1  0
 27 15  1  0
 24 18  1  0
  1 33  1  0
  1 34  1  0
  1 35  1  0
  2 36  1  1
  3 37  1  0
  3 38  1  0
  4 39  1  0
  4 40  1  0
  5 41  1  1
  8 42  1  0
  8 43  1  0
  8 44  1  0
  9 45  1  0
  9 46  1  0
  9 47  1  0
 10 48  1  1
 11 49  1  0
 11 50  1  0
 12 51  1  0
 12 52  1  0
 14 53  1  0
 14 54  1  0
 14 55  1  0
 15 56  1  6
 16 57  1  0
 16 58  1  0
 17 59  1  0
 19 60  1  1
 20 61  1  0
 20 62  1  0
 21 63  1  0
 21 64  1  0
 22 65  1  1
 23 66  1  0
 25 67  1  0
 25 68  1  0
 25 69  1  0
 26 70  1  0
 26 71  1  0
 26 72  1  0
 28 73  1  0
 28 74  1  0
 28 75  1  0
 29 76  1  0
 29 77  1  0
 30 78  1  0
 30 79  1  0
 32 80  1  0
 32 81  1  0
 32 82  1  0
M  END
>  <meeko>  (6) 
{"is_sidechain": [false], "intermolecular_energy": 2.731, "internal_energy": -0.839}

$$$$
EPH_relaxed_0001_pdb2pqr_Repair_286_r2_0001_out
     RDKit          3D

 82 86  0  0  0  0  0  0  0  0999 V2000
    3.2460   17.9880   -1.1470 C   0  0  0  0  0  0  0  0  0  0  0  0
    2.9180   17.5060   -2.5630 C   0  0  2  0  0  0  0  0  0  0  0  0
    1.5760   18.0680   -3.0720 C   0  0  0  0  0  0  0  0  0  0  0  0
    0.9980   19.1760   -2.1870 C   0  0  0  0  0  0  0  0  0  0  0  0
   -0.2690   18.7420   -1.5140 C   0  0  2  0  0  0  0  0  0  0  0  0
   -1.0520   19.8110   -0.9660 O   0  0  0  0  0  0  0  0  0  0  0  0
   -0.5110   18.8730   -0.0220 C   0  0  0  0  0  0  0  0  0  0  0  0
    0.5250   19.4550    0.8880 C   0  0  0  0  0  0  0  0  0  0  0  0
   -1.5430   17.9960    0.6160 C   0  0  0  0  0  0  0  0  0  0  0  0
    2.8930   15.9820   -2.6000 C   0  0  1  0  0  0  0  0  0  0  0  0
    4.3140   15.3620   -2.6700 C   0  0  0  0  0  0  0  0  0  0  0  0
    4.2680   14.0450   -1.8550 C   0  0  0  0  0  0  0  0  0  0  0  0
    2.7610   13.7810   -1.6240 C   0  0  1  0  0  0  0  0  0  0  0  0
    2.2610   13.1250   -2.9490 C   0  0  0  0  0  0  0  0  0  0  0  0
    2.3950   12.9130   -0.3760 C   0  0  2  0  0  0  0  0  0  0  0  0
    2.9380   11.4740   -0.4000 C   0  0  0  0  0  0  0  0  0  0  0  0
    2.0340   10.4610   -1.0210 C   0  0  0  0  0  0  0  0  0  0  0  0
    0.7250   10.6350   -1.2800 C   0  0  0  0  0  0  0  0  0  0  0  0
    0.0020   11.9190   -0.8520 C   0  0  1  0  0  0  0  0  0  0  0  0
   -1.3440   11.5530   -0.1720 C   0  0  0  0  0  0  0  0  0  0  0  0
   -2.2160   10.6560   -1.0460 C   0  0  0  0  0  0  0  0  0  0  0  0
   -1.4840    9.3650   -1.4020 C   0  0  2  0  0  0  0  0  0  0  0  0
   -1.3000    8.5950   -0.2100 O   0  0  0  0  0  0  0  0  0  0  0  0
   -0.1090    9.6080   -2.0840 C   0  0  0  0  0  0  0  0  0  0  0  0
   -0.3270   10.1700   -3.5110 C   0  0  0  0  0  0  0  0  0  0  0  0
    0.5860    8.2310   -2.2620 C   0  0  0  0  0  0  0  0  0  0  0  0
    0.8600   12.9450    0.0070 C   0  0  1  0  0  0  0  0  0  0  0  0
    0.7710   12.5770    1.5200 C   0  0  0  0  0  0  0  0  0  0  0  0
    0.2360   14.3830   -0.1370 C   0  0  0  0  0  0  0  0  0  0  0  0
    0.7270   15.2380   -1.3220 C   0  0  0  0  0  0  0  0  0  0  0  0
    2.2580   15.2520   -1.3900 C   0  0  2  0  0  0  0  0  0  0  0  0
    2.7890   15.9260   -0.0800 C   0  0  0  0  0  0  0  0  0  0  0  0
    2.7850   17.3106   -0.4131 H   0  0  0  0  0  0  0  0  0  0  0  0
    4.3368   17.9945   -1.0054 H   0  0  0  0  0  0  0  0  0  0  0  0
    2.8518   19.0051   -1.0054 H   0  0  0  0  0  0  0  0  0  0  0  0
    3.7068   17.8814   -3.2315 H   0  0  0  0  0  0  0  0  0  0  0  0
    1.7307   18.4753   -4.0820 H   0  0  0  0  0  0  0  0  0  0  0  0
    0.8545   17.2378   -3.0605 H   0  0  0  0  0  0  0  0  0  0  0  0
    1.7382   19.4404   -1.4174 H   0  0  0  0  0  0  0  0  0  0  0  0
    0.7684   20.0414   -2.8261 H   0  0  0  0  0  0  0  0  0  0  0  0
   -0.3746   17.8942   -2.2069 H   0  0  0  0  0  0  0  0  0  0  0  0
    0.2291   19.2887    1.9343 H   0  0  0  0  0  0  0  0  0  0  0  0
    1.4936   18.9690    0.6992 H   0  0  0  0  0  0  0  0  0  0  0  0
    0.6138   20.5350    0.6992 H   0  0  0  0  0  0  0  0  0  0  0  0
   -1.4590   18.0674    1.7105 H   0  0  0  0  0  0  0  0  0  0  0  0
   -2.5458   18.3225    0.3032 H   0  0  0  0  0  0  0  0  0  0  0  0
   -1.3826   16.9537    0.3032 H   0  0  0  0  0  0  0  0  0  0  0  0
    2.2762   15.8298   -3.4980 H   0  0  0  0  0  0  0  0  0  0  0  0
    4.5842   15.1513   -3.7153 H   0  0  0  0  0  0  0  0  0  0  0  0
    5.0667   16.0527   -2.2621 H   0  0  0  0  0  0  0  0  0  0  0  0
    4.7240   13.2207   -2.4231 H   0  0  0  0  0  0  0  0  0  0  0  0
    4.8279   14.1190   -0.9111 H   0  0  0  0  0  0  0  0  0  0  0  0
    1.6098   12.2707   -2.7122 H   0  0  0  0  0  0  0  0  0  0  0  0
    1.6961   13.8654   -3.5343 H   0  0  0  0  0  0  0  0  0  0  0  0
    3.1247   12.7766   -3.5343 H   0  0  0  0  0  0  0  0  0  0  0  0
    2.9374   13.4231    0.4337 H   0  0  0  0  0  0  0  0  0  0  0  0
    3.8829   11.4767   -0.9631 H   0  0  0  0  0  0  0  0  0  0  0  0
    3.0527   11.1747    0.6523 H   0  0  0  0  0  0  0  0  0  0  0  0
    2.4755    9.4899   -1.2896 H   0  0  0  0  0  0  0  0  0  0  0  0
   -0.1878   12.4836   -1.7768 H   0  0  0  0  0  0  0  0  0  0  0  0
   -1.1314   11.0277    0.7708 H   0  0  0  0  0  0  0  0  0  0  0  0
   -1.8958   12.4886    0.0015 H   0  0  0  0  0  0  0  0  0  0  0  0
   -3.1384   10.4083   -0.5003 H   0  0  0  0  0  0  0  0  0  0  0  0
   -2.4525   11.1939   -1.9759 H   0  0  0  0  0  0  0  0  0  0  0  0
   -2.1050    8.8250   -2.1319 H   0  0  0  0  0  0  0  0  0  0  0  0
   -1.3730    7.6560   -0.4520 H   0  0  0  0  0  0  0  0  0  0  0  0
   -0.7241   11.1937   -3.4452 H   0  0  0  0  0  0  0  0  0  0  0  0
    0.6315   10.1825   -4.0506 H   0  0  0  0  0  0  0  0  0  0  0  0
   -1.0432    9.5329   -4.0506 H   0  0  0  0  0  0  0  0  0  0  0  0
    0.8037    7.7997   -1.2738 H   0  0  0  0  0  0  0  0  0  0  0  0
   -0.0785    7.5542   -2.8192 H   0  0  0  0  0  0  0  0  0  0  0  0
    1.5251    8.3636   -2.8192 H   0  0  0  0  0  0  0  0  0  0  0  0
    0.9866   13.4684    2.1275 H   0  0  0  0  0  0  0  0  0  0  0  0
   -0.2411   12.2127    1.7498 H   0  0  0  0  0  0  0  0  0  0  0  0
    1.5048   11.7904    1.7498 H   0  0  0  0  0  0  0  0  0  0  0  0
   -0.8527   14.2645   -0.2406 H   0  0  0  0  0  0  0  0  0  0  0  0
    0.5567   14.9275    0.7633 H   0  0  0  0  0  0  0  0  0  0  0  0
    0.3289   14.8187   -2.2578 H   0  0  0  0  0  0  0  0  0  0  0  0
    0.3723   16.2697   -1.1813 H   0  0  0  0  0  0  0  0  0  0  0  0
    2.3764   15.4023    0.7950 H   0  0  0  0  0  0  0  0  0  0  0  0
    3.8873   15.8687   -0.0574 H   0  0  0  0  0  0  0  0  0  0  0  0
    2.4763   16.9804   -0.0574 H   0  0  0  0  0  0  0  0  0  0  0  0
  1  2  1  0
  2  3  1  0
  3  4  1  0
  4  5  1  0
  5  6  1  0
  6  7  1  0
  7  8  1  0
  7  9  1  0
  2 10  1  0
 10 11  1  0
 11 12  1  0
 12 13  1  0
 13 14  1  6
 13 15  1  0
 15 16  1  0
 16 17  1  0
 17 18  2  0
 18 19  1  0
 19 20  1  0
 20 21  1  0
 21 22  1  0
 22 23  1  0
 22 24  1  0
 24 25  1  0
 24 26  1  0
 19 27  1  0
 27 28  1  1
 27 29  1  0
 29 30  1  0
 30 31  1  0
 31 32  1  1
  7  5  1  0
 31 10  1  0
 31 13  1  0
 27 15  1  0
 24 18  1  0
  1 33  1  0
  1 34  1  0
  1 35  1  0
  2 36  1  6
  3 37  1  0
  3 38  1  0
  4 39  1  0
  4 40  1  0
  5 41  1  6
  8 42  1  0
  8 43  1  0
  8 44  1  0
  9 45  1  0
  9 46  1  0
  9 47  1  0
 10 48  1  6
 11 49  1  0
 11 50  1  0
 12 51  1  0
 12 52  1  0
 14 53  1  0
 14 54  1  0
 14 55  1  0
 15 56  1  1
 16 57  1  0
 16 58  1  0
 17 59  1  0
 19 60  1  6
 20 61  1  0
 20 62  1  0
 21 63  1  0
 21 64  1  0
 22 65  1  6
 23 66  1  0
 25 67  1  0
 25 68  1  0
 25 69  1  0
 26 70  1  0
 26 71  1  0
 26 72  1  0
 28 73  1  0
 28 74  1  0
 28 75  1  0
 29 76  1  0
 29 77  1  0
 30 78  1  0
 30 79  1  0
 32 80  1  0
 32 81  1  0
 32 82  1  0
M  END
>  <meeko>  (7) 
{"is_sidechain": [false], "intermolecular_energy": 2.731, "internal_energy": -0.839}

$$$$
EPH_relaxed_0001_pdb2pqr_Repair_286_r2_0001_out
     RDKit          3D

 82 86  0  0  0  0  0  0  0  0999 V2000
    0.6120    9.0500   -1.9240 C   0  0  0  0  0  0  0  0  0  0  0  0
    1.3260   10.0940   -2.7870 C   0  0  2  0  0  0  0  0  0  0  0  0
    2.8290   10.1910   -2.4560 C   0  0  0  0  0  0  0  0  0  0  0  0
    3.7060   10.5170   -3.6680 C   0  0  0  0  0  0  0  0  0  0  0  0
    5.1080   10.8560   -3.2620 C   0  0  2  0  0  0  0  0  0  0  0  0
    5.6230   12.0640   -3.8380 O   0  0  0  0  0  0  0  0  0  0  0  0
    6.2820   10.8470   -4.2230 C   0  0  0  0  0  0  0  0  0  0  0  0
    6.1070   10.4900   -5.6660 C   0  0  0  0  0  0  0  0  0  0  0  0
    7.6640   10.7070   -3.6640 C   0  0  0  0  0  0  0  0  0  0  0  0
    0.6650   11.4550   -2.6090 C   0  0  1  0  0  0  0  0  0  0  0  0
   -0.6280   11.3840   -1.7520 C   0  0  0  0  0  0  0  0  0  0  0  0
   -0.6930   12.6980   -0.9310 C   0  0  0  0  0  0  0  0  0  0  0  0
    0.3700   13.6160   -1.5790 C   0  0  1  0  0  0  0  0  0  0  0  0
   -0.3330   14.2190   -2.8360 C   0  0  0  0  0  0  0  0  0  0  0  0
    0.9700   14.7320   -0.6630 C   0  0  2  0  0  0  0  0  0  0  0  0
   -0.0420   15.7750   -0.1570 C   0  0  0  0  0  0  0  0  0  0  0  0
   -0.2120   16.9740   -1.0290 C   0  0  0  0  0  0  0  0  0  0  0  0
    0.6210   17.3450   -2.0200 C   0  0  0  0  0  0  0  0  0  0  0  0
    1.9230   16.5780   -2.2830 C   0  0  1  0  0  0  0  0  0  0  0  0
    3.0890   17.5840   -2.4630 C   0  0  0  0  0  0  0  0  0  0  0  0
    2.8000   18.6290   -3.5370 C   0  0  0  0  0  0  0  0  0  0  0  0
    1.5300   19.4100   -3.2100 C   0  0  2  0  0  0  0  0  0  0  0  0
    1.7600   20.1930   -2.0350 O   0  0  0  0  0  0  0  0  0  0  0  0
    0.2890   18.4990   -2.9970 C   0  0  0  0  0  0  0  0  0  0  0  0
   -0.1420   17.8820   -4.3510 C   0  0  0  0  0  0  0  0  0  0  0  0
   -0.8900   19.3990   -2.5360 C   0  0  0  0  0  0  0  0  0  0  0  0
    2.2680   15.4220   -1.2480 C   0  0  1  0  0  0  0  0  0  0  0  0
    3.0450   16.0120   -0.0320 C   0  0  0  0  0  0  0  0  0  0  0  0
    3.2370   14.3890   -1.9350 C   0  0  0  0  0  0  0  0  0  0  0  0
    2.5810   13.2410   -2.7270 C   0  0  0  0  0  0  0  0  0  0  0  0
    1.4880   12.5590   -1.8980 C   0  0  2  0  0  0  0  0  0  0  0  0
    2.1690   11.9240   -0.6380 C   0  0  0  0  0  0  0  0  0  0  0  0
    0.7710    9.2825   -0.8607 H   0  0  0  0  0  0  0  0  0  0  0  0
   -0.4653    9.0658   -2.1457 H   0  0  0  0  0  0  0  0  0  0  0  0
    1.0174    8.0517   -2.1457 H   0  0  0  0  0  0  0  0  0  0  0  0
    1.2388    9.7726   -3.8354 H   0  0  0  0  0  0  0  0  0  0  0  0
    2.9687   10.9812   -1.7036 H   0  0  0  0  0  0  0  0  0  0  0  0
    3.1420    9.2023   -2.0891 H   0  0  0  0  0  0  0  0  0  0  0  0
    3.7296    9.6436   -4.3363 H   0  0  0  0  0  0  0  0  0  0  0  0
    3.2755   11.3916   -4.1777 H   0  0  0  0  0  0  0  0  0  0  0  0
    4.9588   10.3946   -2.2746 H   0  0  0  0  0  0  0  0  0  0  0  0
    5.6240    9.5048   -5.7440 H   0  0  0  0  0  0  0  0  0  0  0  0
    5.4777   11.2468   -6.1572 H   0  0  0  0  0  0  0  0  0  0  0  0
    7.0906   10.4561   -6.1572 H   0  0  0  0  0  0  0  0  0  0  0  0
    7.6172   10.7117   -2.5650 H   0  0  0  0  0  0  0  0  0  0  0  0
    8.1045    9.7596   -4.0082 H   0  0  0  0  0  0  0  0  0  0  0  0
    8.2856   11.5468   -4.0082 H   0  0  0  0  0  0  0  0  0  0  0  0
    0.5088   11.7227   -3.6644 H   0  0  0  0  0  0  0  0  0  0  0  0
   -1.5103   11.3004   -2.4036 H   0  0  0  0  0  0  0  0  0  0  0  0
   -0.6158   10.5051   -1.0906 H   0  0  0  0  0  0  0  0  0  0  0  0
   -1.6928   13.1512   -1.0021 H   0  0  0  0  0  0  0  0  0  0  0  0
   -0.5030   12.5308    0.1395 H   0  0  0  0  0  0  0  0  0  0  0  0
   -1.1318   14.9042   -2.5160 H   0  0  0  0  0  0  0  0  0  0  0  0
    0.4035   14.7705   -3.4388 H   0  0  0  0  0  0  0  0  0  0  0  0
   -0.7660   13.4071   -3.4388 H   0  0  0  0  0  0  0  0  0  0  0  0
    1.2833   14.1646    0.2258 H   0  0  0  0  0  0  0  0  0  0  0  0
   -1.0206   15.2814   -0.0633 H   0  0  0  0  0  0  0  0  0  0  0  0
    0.3570   16.1476    0.7980 H   0  0  0  0  0  0  0  0  0  0  0  0
   -1.0920   17.6084   -0.8469 H   0  0  0  0  0  0  0  0  0  0  0  0
    1.7640   16.0202   -3.2177 H   0  0  0  0  0  0  0  0  0  0  0  0
    3.2607   18.0995   -1.5066 H   0  0  0  0  0  0  0  0  0  0  0  0
    3.9749   17.0148   -2.7809 H   0  0  0  0  0  0  0  0  0  0  0  0
    3.6473   19.3280   -3.5965 H   0  0  0  0  0  0  0  0  0  0  0  0
    2.6580   18.1143   -4.4987 H   0  0  0  0  0  0  0  0  0  0  0  0
    1.3040   20.0503   -4.0754 H   0  0  0  0  0  0  0  0  0  0  0  0
    0.9050   20.5600   -1.7540 H   0  0  0  0  0  0  0  0  0  0  0  0
   -0.7631   16.9928   -4.1676 H   0  0  0  0  0  0  0  0  0  0  0  0
   -0.7208   18.6218   -4.9234 H   0  0  0  0  0  0  0  0  0  0  0  0
    0.7518   17.5932   -4.9234 H   0  0  0  0  0  0  0  0  0  0  0  0
   -0.9236   19.4247   -1.4368 H   0  0  0  0  0  0  0  0  0  0  0  0
   -0.7457   20.4188   -2.9224 H   0  0  0  0  0  0  0  0  0  0  0  0
   -1.8356   18.9909   -2.9224 H   0  0  0  0  0  0  0  0  0  0  0  0
    2.5835   15.6616    0.9030 H   0  0  0  0  0  0  0  0  0  0  0  0
    4.0930   15.6801   -0.0705 H   0  0  0  0  0  0  0  0  0  0  0  0
    3.0067   17.1107   -0.0705 H   0  0  0  0  0  0  0  0  0  0  0  0
    3.8803   14.9480   -2.6305 H   0  0  0  0  0  0  0  0  0  0  0  0
    3.7697   13.8993   -1.1065 H   0  0  0  0  0  0  0  0  0  0  0  0
    2.1347   13.6471   -3.6467 H   0  0  0  0  0  0  0  0  0  0  0  0
    3.3531   12.4964   -2.9707 H   0  0  0  0  0  0  0  0  0  0  0  0
    1.7184   12.3442    0.2732 H   0  0  0  0  0  0  0  0  0  0  0  0
    2.0209   10.8341   -0.6513 H   0  0  0  0  0  0  0  0  0  0  0  0
    3.2459   12.1479   -0.6513 H   0  0  0  0  0  0  0  0  0  0  0  0
  1  2  1  0
  2  3  1  0
  3  4  1  0
  4  5  1  0
  5  6  1  0
  6  7  1  0
  7  8  1  0
  7  9  1  0
  2 10  1  0
 10 11  1  0
 11 12  1  0
 12 13  1  0
 13 14  1  6
 13 15  1  0
 15 16  1  0
 16 17  1  0
 17 18  2  0
 18 19  1  0
 19 20  1  0
 20 21  1  0
 21 22  1  0
 22 23  1  0
 22 24  1  0
 24 25  1  0
 24 26  1  0
 19 27  1  0
 27 28  1  1
 27 29  1  0
 29 30  1  0
 30 31  1  0
 31 32  1  1
  7  5  1  0
 31 10  1  0
 31 13  1  0
 27 15  1  0
 24 18  1  0
  1 33  1  0
  1 34  1  0
  1 35  1  0
  2 36  1  6
  3 37  1  0
  3 38  1  0
  4 39  1  0
  4 40  1  0
  5 41  1  1
  8 42  1  0
  8 43  1  0
  8 44  1  0
  9 45  1  0
  9 46  1  0
  9 47  1  0
 10 48  1  6
 11 49  1  0
 11 50  1  0
 12 51  1  0
 12 52  1  0
 14 53  1  0
 14 54  1  0
 14 55  1  0
 15 56  1  1
 16 57  1  0
 16 58  1  0
 17 59  1  0
 19 60  1  6
 20 61  1  0
 20 62  1  0
 21 63  1  0
 21 64  1  0
 22 65  1  6
 23 66  1  0
 25 67  1  0
 25 68  1  0
 25 69  1  0
 26 70  1  0
 26 71  1  0
 26 72  1  0
 28 73  1  0
 28 74  1  0
 28 75  1  0
 29 76  1  0
 29 77  1  0
 30 78  1  0
 30 79  1  0
 32 80  1  0
 32 81  1  0
 32 82  1  0
M  END
>  <meeko>  (8) 
{"is_sidechain": [false], "intermolecular_energy": 2.731, "internal_energy": -0.839}

$$$$
EPH_relaxed_0001_pdb2pqr_Repair_286_r2_0001_out
     RDKit          3D

 82 86  0  0  0  0  0  0  0  0999 V2000
   -2.5270    7.7630   -2.8660 C   0  0  0  0  0  0  0  0  0  0  0  0
   -2.8400    8.0790   -1.4010 C   0  0  2  0  0  0  0  0  0  0  0  0
   -4.3570    8.1370   -1.1310 C   0  0  0  0  0  0  0  0  0  0  0  0
   -5.0800    6.8130   -1.3930 C   0  0  0  0  0  0  0  0  0  0  0  0
   -6.1520    6.9610   -2.4300 C   0  0  2  0  0  0  0  0  0  0  0  0
   -6.8750    8.1970   -2.3710 O   0  0  0  0  0  0  0  0  0  0  0  0
   -7.6320    7.0060   -2.1020 C   0  0  0  0  0  0  0  0  0  0  0  0
   -8.1230    6.9010   -0.6930 C   0  0  0  0  0  0  0  0  0  0  0  0
   -8.6140    6.6610   -3.1790 C   0  0  0  0  0  0  0  0  0  0  0  0
   -2.1900    9.3990   -1.0040 C   0  0  1  0  0  0  0  0  0  0  0  0
   -2.6000    9.8620    0.4200 C   0  0  0  0  0  0  0  0  0  0  0  0
   -1.3630   10.5660    1.0350 C   0  0  0  0  0  0  0  0  0  0  0  0
   -0.4020   10.7790   -0.1580 C   0  0  1  0  0  0  0  0  0  0  0  0
   -0.9310   12.0600   -0.8760 C   0  0  0  0  0  0  0  0  0  0  0  0
    1.1170   10.8990    0.1910 C   0  0  2  0  0  0  0  0  0  0  0  0
    1.4900   12.0990    1.0790 C   0  0  0  0  0  0  0  0  0  0  0  0
    1.8480   13.3480    0.3440 C   0  0  0  0  0  0  0  0  0  0  0  0
    2.1460   13.4270   -0.9660 C   0  0  0  0  0  0  0  0  0  0  0  0
    2.2370   12.1630   -1.8310 C   0  0  1  0  0  0  0  0  0  0  0  0
    3.5230   12.2200   -2.6960 C   0  0  0  0  0  0  0  0  0  0  0  0
    3.6170   13.5000   -3.5220 C   0  0  0  0  0  0  0  0  0  0  0  0
    3.5820   14.7320   -2.6220 C   0  0  2  0  0  0  0  0  0  0  0  0
    4.7720   14.7580   -1.8280 O   0  0  0  0  0  0  0  0  0  0  0  0
    2.3350   14.7800   -1.6960 C   0  0  0  0  0  0  0  0  0  0  0  0
    1.0680   15.0560   -2.5430 C   0  0  0  0  0  0  0  0  0  0  0  0
    2.4930   15.9960   -0.7440 C   0  0  0  0  0  0  0  0  0  0  0  0
    2.0810   10.7830   -1.0590 C   0  0  1  0  0  0  0  0  0  0  0  0
    3.4660   10.3190   -0.5130 C   0  0  0  0  0  0  0  0  0  0  0  0
    1.6120    9.6760   -2.0760 C   0  0  0  0  0  0  0  0  0  0  0  0
    0.0930    9.5260   -2.2880 C   0  0  0  0  0  0  0  0  0  0  0  0
   -0.6420    9.4400   -0.9470 C   0  0  2  0  0  0  0  0  0  0  0  0
   -0.1460    8.1480   -0.2120 C   0  0  0  0  0  0  0  0  0  0  0  0
   -1.7537    6.9823   -2.9156 H   0  0  0  0  0  0  0  0  0  0  0  0
   -3.4393    7.4078   -3.3675 H   0  0  0  0  0  0  0  0  0  0  0  0
   -2.1631    8.6719   -3.3675 H   0  0  0  0  0  0  0  0  0  0  0  0
   -2.4268    7.2624   -0.7907 H   0  0  0  0  0  0  0  0  0  0  0  0
   -4.5119    8.4148   -0.0780 H   0  0  0  0  0  0  0  0  0  0  0  0
   -4.7792    8.8769   -1.8268 H   0  0  0  0  0  0  0  0  0  0  0  0
   -4.3475    6.0700   -1.7414 H   0  0  0  0  0  0  0  0  0  0  0  0
   -5.5540    6.4902   -0.4543 H   0  0  0  0  0  0  0  0  0  0  0  0
   -5.5734    6.3611   -3.1479 H   0  0  0  0  0  0  0  0  0  0  0  0
   -7.2880    7.0796    0.0005 H   0  0  0  0  0  0  0  0  0  0  0  0
   -8.9088    7.6514   -0.5217 H   0  0  0  0  0  0  0  0  0  0  0  0
   -8.5332    5.8948   -0.5217 H   0  0  0  0  0  0  0  0  0  0  0  0
   -9.5580    6.3294   -2.7219 H   0  0  0  0  0  0  0  0  0  0  0  0
   -8.8003    7.5475   -3.8030 H   0  0  0  0  0  0  0  0  0  0  0  0
   -8.2049    5.8528   -3.8030 H   0  0  0  0  0  0  0  0  0  0  0  0
   -2.5538   10.0378   -1.8222 H   0  0  0  0  0  0  0  0  0  0  0  0
   -3.4451   10.5637    0.3615 H   0  0  0  0  0  0  0  0  0  0  0  0
   -2.9159    9.0081    1.0373 H   0  0  0  0  0  0  0  0  0  0  0  0
   -1.6471   11.5302    1.4817 H   0  0  0  0  0  0  0  0  0  0  0  0
   -0.9035    9.9739    1.8402 H   0  0  0  0  0  0  0  0  0  0  0  0
   -1.2374   12.8019   -0.1238 H   0  0  0  0  0  0  0  0  0  0  0  0
   -0.1341   12.4833   -1.5051 H   0  0  0  0  0  0  0  0  0  0  0  0
   -1.7944   11.7976   -1.5051 H   0  0  0  0  0  0  0  0  0  0  0  0
    1.2876   10.0055    0.8094 H   0  0  0  0  0  0  0  0  0  0  0  0
    0.6308   12.3212    1.7289 H   0  0  0  0  0  0  0  0  0  0  0  0
    2.3935   11.8005    1.6309 H   0  0  0  0  0  0  0  0  0  0  0  0
    1.8701   14.2834    0.9224 H   0  0  0  0  0  0  0  0  0  0  0  0
    1.3495   12.1735   -2.4809 H   0  0  0  0  0  0  0  0  0  0  0  0
    4.3977   12.1643   -2.0313 H   0  0  0  0  0  0  0  0  0  0  0  0
    3.4919   11.3724   -3.3964 H   0  0  0  0  0  0  0  0  0  0  0  0
    4.5597   13.4946   -4.0888 H   0  0  0  0  0  0  0  0  0  0  0  0
    2.7574   13.5404   -4.2071 H   0  0  0  0  0  0  0  0  0  0  0  0
    3.5213   15.6149   -3.2753 H   0  0  0  0  0  0  0  0  0  0  0  0
    5.4930   14.3900   -2.3670 H   0  0  0  0  0  0  0  0  0  0  0  0
    0.2139   15.2421   -1.8752 H   0  0  0  0  0  0  0  0  0  0  0  0
    1.2363   15.9385   -3.1777 H   0  0  0  0  0  0  0  0  0  0  0  0
    0.8540   14.1834   -3.1777 H   0  0  0  0  0  0  0  0  0  0  0  0
    2.4484   15.6525    0.3000 H   0  0  0  0  0  0  0  0  0  0  0  0
    3.4620   16.4828   -0.9287 H   0  0  0  0  0  0  0  0  0  0  0  0
    1.6806   16.7143   -0.9287 H   0  0  0  0  0  0  0  0  0  0  0  0
    3.4473   10.3253    0.5868 H   0  0  0  0  0  0  0  0  0  0  0  0
    3.6785    9.3006   -0.8703 H   0  0  0  0  0  0  0  0  0  0  0  0
    4.2491   11.0038   -0.8703 H   0  0  0  0  0  0  0  0  0  0  0  0
    2.0629    9.9083   -3.0521 H   0  0  0  0  0  0  0  0  0  0  0  0
    1.9364    8.7226   -1.6335 H   0  0  0  0  0  0  0  0  0  0  0  0
   -0.2799   10.3966   -2.8475 H   0  0  0  0  0  0  0  0  0  0  0  0
   -0.0928    8.5987   -2.8498 H   0  0  0  0  0  0  0  0  0  0  0  0
   -0.2043    8.2998    0.8759 H   0  0  0  0  0  0  0  0  0  0  0  0
   -0.7812    7.2967   -0.4980 H   0  0  0  0  0  0  0  0  0  0  0  0
    0.8957    7.9405   -0.4980 H   0  0  0  0  0  0  0  0  0  0  0  0
  1  2  1  0
  2  3  1  0
  3  4  1  0
  4  5  1  0
  5  6  1  0
  6  7  1  0
  7  8  1  0
  7  9  1  0
  2 10  1  0
 10 11  1  0
 11 12  1  0
 12 13  1  0
 13 14  1  6
 13 15  1  0
 15 16  1  0
 16 17  1  0
 17 18  2  0
 18 19  1  0
 19 20  1  0
 20 21  1  0
 21 22  1  0
 22 23  1  0
 22 24  1  0
 24 25  1  0
 24 26  1  0
 19 27  1  0
 27 28  1  1
 27 29  1  0
 29 30  1  0
 30 31  1  0
 31 32  1  1
  7  5  1  0
 31 10  1  0
 31 13  1  0
 27 15  1  0
 24 18  1  0
  1 33  1  0
  1 34  1  0
  1 35  1  0
  2 36  1  1
  3 37  1  0
  3 38  1  0
  4 39  1  0
  4 40  1  0
  5 41  1  6
  8 42  1  0
  8 43  1  0
  8 44  1  0
  9 45  1  0
  9 46  1  0
  9 47  1  0
 10 48  1  6
 11 49  1  0
 11 50  1  0
 12 51  1  0
 12 52  1  0
 14 53  1  0
 14 54  1  0
 14 55  1  0
 15 56  1  1
 16 57  1  0
 16 58  1  0
 17 59  1  0
 19 60  1  6
 20 61  1  0
 20 62  1  0
 21 63  1  0
 21 64  1  0
 22 65  1  6
 23 66  1  0
 25 67  1  0
 25 68  1  0
 25 69  1  0
 26 70  1  0
 26 71  1  0
 26 72  1  0
 28 73  1  0
 28 74  1  0
 28 75  1  0
 29 76  1  0
 29 77  1  0
 30 78  1  0
 30 79  1  0
 32 80  1  0
 32 81  1  0
 32 82  1  0
M  END
>  <meeko>  (9) 
{"is_sidechain": [false], "intermolecular_energy": 2.731, "internal_energy": -0.839}

$$$$
EPH_relaxed_0001_pdb2pqr_Repair_286_r2_0001_out
     RDKit          3D

 82 86  0  0  0  0  0  0  0  0999 V2000
    4.4810   17.5770   -2.6120 C   0  0  0  0  0  0  0  0  0  0  0  0
    3.0240   17.1400   -2.4350 C   0  0  2  0  0  0  0  0  0  0  0  0
    2.4250   17.6410   -1.1050 C   0  0  0  0  0  0  0  0  0  0  0  0
    2.0770   19.1320   -1.1100 C   0  0  0  0  0  0  0  0  0  0  0  0
    0.5960   19.3550   -1.0330 C   0  0  2  0  0  0  0  0  0  0  0  0
   -0.1990   18.2650   -1.5180 O   0  0  0  0  0  0  0  0  0  0  0  0
   -0.2930   19.4950   -2.2550 C   0  0  0  0  0  0  0  0  0  0  0  0
    0.2670   19.4190   -3.6400 C   0  0  0  0  0  0  0  0  0  0  0  0
   -1.6110   20.1890   -2.1040 C   0  0  0  0  0  0  0  0  0  0  0  0
    2.9250   15.6210   -2.5120 C   0  0  1  0  0  0  0  0  0  0  0  0
    4.3090   14.9390   -2.6710 C   0  0  0  0  0  0  0  0  0  0  0  0
    4.2410   13.6010   -1.8900 C   0  0  0  0  0  0  0  0  0  0  0  0
    2.7370   13.4010   -1.5900 C   0  0  1  0  0  0  0  0  0  0  0  0
    2.1420   12.8080   -2.9060 C   0  0  0  0  0  0  0  0  0  0  0  0
    2.3920   12.5140   -0.3500 C   0  0  2  0  0  0  0  0  0  0  0  0
    2.8650   11.0530   -0.4400 C   0  0  0  0  0  0  0  0  0  0  0  0
    1.8840   10.1010   -1.0410 C   0  0  0  0  0  0  0  0  0  0  0  0
    0.5730   10.3430   -1.2280 C   0  0  0  0  0  0  0  0  0  0  0  0
   -0.0660   11.6460   -0.7300 C   0  0  1  0  0  0  0  0  0  0  0  0
   -1.3930   11.3220    0.0060 C   0  0  0  0  0  0  0  0  0  0  0  0
   -2.3480   10.4920   -0.8460 C   0  0  0  0  0  0  0  0  0  0  0  0
   -1.6960    9.1790   -1.2740 C   0  0  2  0  0  0  0  0  0  0  0  0
   -1.4910    8.3670   -0.1140 O   0  0  0  0  0  0  0  0  0  0  0  0
   -0.3460    9.3790   -2.0180 C   0  0  0  0  0  0  0  0  0  0  0  0
   -0.6080    9.9920   -3.4160 C   0  0  0  0  0  0  0  0  0  0  0  0
    0.2730    7.9770   -2.2670 C   0  0  0  0  0  0  0  0  0  0  0  0
    0.8810   12.6050    0.1120 C   0  0  1  0  0  0  0  0  0  0  0  0
    0.8490   12.1970    1.6160 C   0  0  0  0  0  0  0  0  0  0  0  0
    0.3200   14.0750    0.0380 C   0  0  0  0  0  0  0  0  0  0  0  0
    0.7920   14.9400   -1.1460 C   0  0  0  0  0  0  0  0  0  0  0  0
    2.3160   14.8860   -1.2920 C   0  0  2  0  0  0  0  0  0  0  0  0
    2.9420   15.4960    0.0080 C   0  0  0  0  0  0  0  0  0  0  0  0
    4.9447   17.7161   -1.6242 H   0  0  0  0  0  0  0  0  0  0  0  0
    5.0305   16.8041   -3.1695 H   0  0  0  0  0  0  0  0  0  0  0  0
    4.5144   18.5247   -3.1695 H   0  0  0  0  0  0  0  0  0  0  0  0
    2.4407   17.5925   -3.2504 H   0  0  0  0  0  0  0  0  0  0  0  0
    1.5068   17.0707   -0.9009 H   0  0  0  0  0  0  0  0  0  0  0  0
    3.1920   17.4924   -0.3307 H   0  0  0  0  0  0  0  0  0  0  0  0
    2.5556   19.6129   -0.2442 H   0  0  0  0  0  0  0  0  0  0  0  0
    2.4411   19.5665   -2.0527 H   0  0  0  0  0  0  0  0  0  0  0  0
    0.7115   19.9723   -0.1299 H   0  0  0  0  0  0  0  0  0  0  0  0
    1.3558   19.2712   -3.5877 H   0  0  0  0  0  0  0  0  0  0  0  0
   -0.1923   18.5750   -4.1754 H   0  0  0  0  0  0  0  0  0  0  0  0
    0.0493   20.3549   -4.1754 H   0  0  0  0  0  0  0  0  0  0  0  0
   -1.8412   20.3102   -1.0352 H   0  0  0  0  0  0  0  0  0  0  0  0
   -1.5616   21.1780   -2.5829 H   0  0  0  0  0  0  0  0  0  0  0  0
   -2.3985   19.5886   -2.5829 H   0  0  0  0  0  0  0  0  0  0  0  0
    2.2583   15.5236   -3.3815 H   0  0  0  0  0  0  0  0  0  0  0  0
    4.5167   14.7470   -3.7340 H   0  0  0  0  0  0  0  0  0  0  0  0
    5.1129   15.5820   -2.2835 H   0  0  0  0  0  0  0  0  0  0  0  0
    4.6283   12.7735   -2.5026 H   0  0  0  0  0  0  0  0  0  0  0  0
    4.8502   13.6208   -0.9743 H   0  0  0  0  0  0  0  0  0  0  0  0
    1.3831   12.0516   -2.6571 H   0  0  0  0  0  0  0  0  0  0  0  0
    1.6778   13.6134   -3.4941 H   0  0  0  0  0  0  0  0  0  0  0  0
    2.9459   12.3411   -3.4941 H   0  0  0  0  0  0  0  0  0  0  0  0
    2.9973   12.9749    0.4445 H   0  0  0  0  0  0  0  0  0  0  0  0
    3.7798   11.0289   -1.0504 H   0  0  0  0  0  0  0  0  0  0  0  0
    3.0181   10.7182    0.5966 H   0  0  0  0  0  0  0  0  0  0  0  0
    2.2648    9.1188   -1.3577 H   0  0  0  0  0  0  0  0  0  0  0  0
   -0.2736   12.2466   -1.6279 H   0  0  0  0  0  0  0  0  0  0  0  0
   -1.1596   10.7603    0.9225 H   0  0  0  0  0  0  0  0  0  0  0  0
   -1.8910   12.2766    0.2313 H   0  0  0  0  0  0  0  0  0  0  0  0
   -3.2529   10.2708   -0.2609 H   0  0  0  0  0  0  0  0  0  0  0  0
   -2.6045   11.0672   -1.7479 H   0  0  0  0  0  0  0  0  0  0  0  0
   -2.3763    8.6894   -1.9863 H   0  0  0  0  0  0  0  0  0  0  0  0
   -1.8590    7.4870   -0.3010 H   0  0  0  0  0  0  0  0  0  0  0  0
   -1.0379   10.9979   -3.3006 H   0  0  0  0  0  0  0  0  0  0  0  0
    0.3398   10.0597   -3.9702 H   0  0  0  0  0  0  0  0  0  0  0  0
   -1.3119    9.3537   -3.9702 H   0  0  0  0  0  0  0  0  0  0  0  0
    0.4864    7.4938   -1.3021 H   0  0  0  0  0  0  0  0  0  0  0  0
   -0.4360    7.3592   -2.8376 H   0  0  0  0  0  0  0  0  0  0  0  0
    1.2072    8.0847   -2.8376 H   0  0  0  0  0  0  0  0  0  0  0  0
    0.9197   13.0987    2.2421 H   0  0  0  0  0  0  0  0  0  0  0  0
   -0.0930   11.6724    1.8337 H   0  0  0  0  0  0  0  0  0  0  0  0
    1.6977   11.5320    1.8337 H   0  0  0  0  0  0  0  0  0  0  0  0
   -0.7769   14.0103   -0.0136 H   0  0  0  0  0  0  0  0  0  0  0  0
    0.7106   14.5775    0.9352 H   0  0  0  0  0  0  0  0  0  0  0  0
    0.3285   14.5670   -2.0713 H   0  0  0  0  0  0  0  0  0  0  0  0
    0.4945   15.9824   -0.9591 H   0  0  0  0  0  0  0  0  0  0  0  0
    2.4721   15.0381    0.8909 H   0  0  0  0  0  0  0  0  0  0  0  0
    4.0235   15.2959    0.0230 H   0  0  0  0  0  0  0  0  0  0  0  0
    2.7699   16.5824    0.0230 H   0  0  0  0  0  0  0  0  0  0  0  0
  1  2  1  0
  2  3  1  0
  3  4  1  0
  4  5  1  0
  5  6  1  0
  6  7  1  0
  7  8  1  0
  7  9  1  0
  2 10  1  0
 10 11  1  0
 11 12  1  0
 12 13  1  0
 13 14  1  6
 13 15  1  0
 15 16  1  0
 16 17  1  0
 17 18  2  0
 18 19  1  0
 19 20  1  0
 20 21  1  0
 21 22  1  0
 22 23  1  0
 22 24  1  0
 24 25  1  0
 24 26  1  0
 19 27  1  0
 27 28  1  1
 27 29  1  0
 29 30  1  0
 30 31  1  0
 31 32  1  1
  7  5  1  0
 31 10  1  0
 31 13  1  0
 27 15  1  0
 24 18  1  0
  1 33  1  0
  1 34  1  0
  1 35  1  0
  2 36  1  6
  3 37  1  0
  3 38  1  0
  4 39  1  0
  4 40  1  0
  5 41  1  1
  8 42  1  0
  8 43  1  0
  8 44  1  0
  9 45  1  0
  9 46  1  0
  9 47  1  0
 10 48  1  6
 11 49  1  0
 11 50  1  0
 12 51  1  0
 12 52  1  0
 14 53  1  0
 14 54  1  0
 14 55  1  0
 15 56  1  1
 16 57  1  0
 16 58  1  0
 17 59  1  0
 19 60  1  6
 20 61  1  0
 20 62  1  0
 21 63  1  0
 21 64  1  0
 22 65  1  6
 23 66  1  0
 25 67  1  0
 25 68  1  0
 25 69  1  0
 26 70  1  0
 26 71  1  0
 26 72  1  0
 28 73  1  0
 28 74  1  0
 28 75  1  0
 29 76  1  0
 29 77  1  0
 30 78  1  0
 30 79  1  0
 32 80  1  0
 32 81  1  0
 32 82  1  0
M  END
>  <meeko>  (10) 
{"is_sidechain": [false], "intermolecular_energy": 2.731, "internal_energy": -0.839}

$$$$
EPH_relaxed_0001_pdb2pqr_Repair_286_r2_0001_out
     RDKit          3D

 82 86  0  0  0  0  0  0  0  0999 V2000
    4.3020   17.5970   -2.6740 C   0  0  0  0  0  0  0  0  0  0  0  0
    2.9400   17.1080   -2.1710 C   0  0  2  0  0  0  0  0  0  0  0  0
    2.6870   17.5040   -0.7030 C   0  0  0  0  0  0  0  0  0  0  0  0
    3.7960   18.3690   -0.0980 C   0  0  0  0  0  0  0  0  0  0  0  0
    3.4620   18.8040    1.2960 C   0  0  2  0  0  0  0  0  0  0  0  0
    3.7640   20.1760    1.5840 O   0  0  0  0  0  0  0  0  0  0  0  0
    4.5080   19.1950    2.3240 C   0  0  0  0  0  0  0  0  0  0  0  0
    5.9690   19.1680    2.0000 C   0  0  0  0  0  0  0  0  0  0  0  0
    4.1440   19.1310    3.7750 C   0  0  0  0  0  0  0  0  0  0  0  0
    2.8410   15.5960   -2.3280 C   0  0  1  0  0  0  0  0  0  0  0  0
    4.2210   14.9280   -2.5730 C   0  0  0  0  0  0  0  0  0  0  0  0
    4.1830   13.5500   -1.8640 C   0  0  0  0  0  0  0  0  0  0  0  0
    2.6910   13.3270   -1.5240 C   0  0  1  0  0  0  0  0  0  0  0  0
    2.0510   12.8050   -2.8480 C   0  0  0  0  0  0  0  0  0  0  0  0
    2.3910   12.3730   -0.3220 C   0  0  2  0  0  0  0  0  0  0  0  0
    2.8640   10.9200   -0.5090 C   0  0  0  0  0  0  0  0  0  0  0  0
    1.8640    9.9990   -1.1260 C   0  0  0  0  0  0  0  0  0  0  0  0
    0.5470   10.2460   -1.2550 C   0  0  0  0  0  0  0  0  0  0  0  0
   -0.0770   11.5160   -0.6630 C   0  0  1  0  0  0  0  0  0  0  0  0
   -1.3760   11.1480    0.1000 C   0  0  0  0  0  0  0  0  0  0  0  0
   -2.3590   10.3620   -0.7630 C   0  0  0  0  0  0  0  0  0  0  0  0
   -1.7200    9.0770   -1.2840 C   0  0  2  0  0  0  0  0  0  0  0  0
   -1.4730    8.2040   -0.1780 O   0  0  0  0  0  0  0  0  0  0  0  0
   -0.3980    9.3230   -2.0630 C   0  0  0  0  0  0  0  0  0  0  0  0
   -0.7100   10.0100   -3.4150 C   0  0  0  0  0  0  0  0  0  0  0  0
    0.2150    7.9390   -2.4110 C   0  0  0  0  0  0  0  0  0  0  0  0
    0.8970   12.4320    0.1960 C   0  0  1  0  0  0  0  0  0  0  0  0
    0.9190   11.9430    1.6760 C   0  0  0  0  0  0  0  0  0  0  0  0
    0.3310   13.9010    0.2230 C   0  0  0  0  0  0  0  0  0  0  0  0
    0.7590   14.8320   -0.9280 C   0  0  0  0  0  0  0  0  0  0  0  0
    2.2770   14.7920   -1.1290 C   0  0  2  0  0  0  0  0  0  0  0  0
    2.9480   15.3330    0.1790 C   0  0  0  0  0  0  0  0  0  0  0  0
    4.9484   17.8291   -1.8148 H   0  0  0  0  0  0  0  0  0  0  0  0
    4.7712   16.8112   -3.2842 H   0  0  0  0  0  0  0  0  0  0  0  0
    4.1642   18.5018   -3.2842 H   0  0  0  0  0  0  0  0  0  0  0  0
    2.1664   17.5962   -2.7818 H   0  0  0  0  0  0  0  0  0  0  0  0
    1.7425   18.0655   -0.6528 H   0  0  0  0  0  0  0  0  0  0  0  0
    2.6531   16.5717   -0.1203 H   0  0  0  0  0  0  0  0  0  0  0  0
    4.7295   17.7875   -0.0758 H   0  0  0  0  0  0  0  0  0  0  0  0
    3.9066   19.2691   -0.7206 H   0  0  0  0  0  0  0  0  0  0  0  0
    2.6132   18.1055    1.3357 H   0  0  0  0  0  0  0  0  0  0  0  0
    6.5514   19.1572    2.9331 H   0  0  0  0  0  0  0  0  0  0  0  0
    6.1981   18.2655    1.4144 H   0  0  0  0  0  0  0  0  0  0  0  0
    6.2313   20.0615    1.4144 H   0  0  0  0  0  0  0  0  0  0  0  0
    5.0447   19.2894    4.3863 H   0  0  0  0  0  0  0  0  0  0  0  0
    3.4044   19.9129    4.0023 H   0  0  0  0  0  0  0  0  0  0  0  0
    3.7155   18.1437    4.0023 H   0  0  0  0  0  0  0  0  0  0  0  0
    2.1440   15.5445   -3.1774 H   0  0  0  0  0  0  0  0  0  0  0  0
    4.3911   14.7945   -3.6515 H   0  0  0  0  0  0  0  0  0  0  0  0
    5.0372   15.5520   -2.1800 H   0  0  0  0  0  0  0  0  0  0  0  0
    4.5512   12.7586   -2.5334 H   0  0  0  0  0  0  0  0  0  0  0  0
    4.8230   13.5233   -0.9698 H   0  0  0  0  0  0  0  0  0  0  0  0
    1.2187   12.1262   -2.6102 H   0  0  0  0  0  0  0  0  0  0  0  0
    1.6739   13.6564   -3.4335 H   0  0  0  0  0  0  0  0  0  0  0  0
    2.8092   12.2644   -3.4335 H   0  0  0  0  0  0  0  0  0  0  0  0
    3.0216   12.7930    0.4755 H   0  0  0  0  0  0  0  0  0  0  0  0
    3.7564   10.9330   -1.1520 H   0  0  0  0  0  0  0  0  0  0  0  0
    3.0551   10.5294    0.5014 H   0  0  0  0  0  0  0  0  0  0  0  0
    2.2351    9.0364   -1.5078 H   0  0  0  0  0  0  0  0  0  0  0  0
   -0.3181   12.1633   -1.5191 H   0  0  0  0  0  0  0  0  0  0  0  0
   -1.1097   10.5380    0.9758 H   0  0  0  0  0  0  0  0  0  0  0  0
   -1.8674   12.0870    0.3948 H   0  0  0  0  0  0  0  0  0  0  0  0
   -3.2427   10.1060   -0.1601 H   0  0  0  0  0  0  0  0  0  0  0  0
   -2.6476   10.9846   -1.6227 H   0  0  0  0  0  0  0  0  0  0  0  0
   -2.4238    8.6235   -1.9975 H   0  0  0  0  0  0  0  0  0  0  0  0
   -1.5140    8.7380    0.6330 H   0  0  0  0  0  0  0  0  0  0  0  0
   -1.1584   10.9973   -3.2298 H   0  0  0  0  0  0  0  0  0  0  0  0
    0.2211   10.1318   -3.9879 H   0  0  0  0  0  0  0  0  0  0  0  0
   -1.4144    9.3890   -3.9879 H   0  0  0  0  0  0  0  0  0  0  0  0
    0.4538    7.3998   -1.4824 H   0  0  0  0  0  0  0  0  0  0  0  0
   -0.5085    7.3548   -2.9985 H   0  0  0  0  0  0  0  0  0  0  0  0
    1.1339    8.0822   -2.9985 H   0  0  0  0  0  0  0  0  0  0  0  0
    0.8799   12.8116    2.3498 H   0  0  0  0  0  0  0  0  0  0  0  0
    0.0491   11.2958    1.8613 H   0  0  0  0  0  0  0  0  0  0  0  0
    1.8435   11.3765    1.8613 H   0  0  0  0  0  0  0  0  0  0  0  0
   -0.7669   13.8349    0.2068 H   0  0  0  0  0  0  0  0  0  0  0  0
    0.7522   14.3550    1.1321 H   0  0  0  0  0  0  0  0  0  0  0  0
    0.2644   14.5083   -1.8557 H   0  0  0  0  0  0  0  0  0  0  0  0
    0.4655   15.8614   -0.6745 H   0  0  0  0  0  0  0  0  0  0  0  0
    2.4309   14.9161    1.0558 H   0  0  0  0  0  0  0  0  0  0  0  0
    4.0059   15.0322    0.1998 H   0  0  0  0  0  0  0  0  0  0  0  0
    2.8784   16.4306    0.1998 H   0  0  0  0  0  0  0  0  0  0  0  0
  1  2  1  0
  2  3  1  0
  3  4  1  0
  4  5  1  0
  5  6  1  0
  6  7  1  0
  7  8  1  0
  7  9  1  0
  2 10  1  0
 10 11  1  0
 11 12  1  0
 12 13  1  0
 13 14  1  6
 13 15  1  0
 15 16  1  0
 16 17  1  0
 17 18  2  0
 18 19  1  0
 19 20  1  0
 20 21  1  0
 21 22  1  0
 22 23  1  0
 22 24  1  0
 24 25  1  0
 24 26  1  0
 19 27  1  0
 27 28  1  1
 27 29  1  0
 29 30  1  0
 30 31  1  0
 31 32  1  1
  7  5  1  0
 31 10  1  0
 31 13  1  0
 27 15  1  0
 24 18  1  0
  1 33  1  0
  1 34  1  0
  1 35  1  0
  2 36  1  6
  3 37  1  0
  3 38  1  0
  4 39  1  0
  4 40  1  0
  5 41  1  1
  8 42  1  0
  8 43  1  0
  8 44  1  0
  9 45  1  0
  9 46  1  0
  9 47  1  0
 10 48  1  6
 11 49  1  0
 11 50  1  0
 12 51  1  0
 12 52  1  0
 14 53  1  0
 14 54  1  0
 14 55  1  0
 15 56  1  1
 16 57  1  0
 16 58  1  0
 17 59  1  0
 19 60  1  6
 20 61  1  0
 20 62  1  0
 21 63  1  0
 21 64  1  0
 22 65  1  6
 23 66  1  0
 25 67  1  0
 25 68  1  0
 25 69  1  0
 26 70  1  0
 26 71  1  0
 26 72  1  0
 28 73  1  0
 28 74  1  0
 28 75  1  0
 29 76  1  0
 29 77  1  0
 30 78  1  0
 30 79  1  0
 32 80  1  0
 32 81  1  0
 32 82  1  0
M  END
>  <meeko>  (11) 
{"is_sidechain": [false], "intermolecular_energy": 2.731, "internal_energy": -0.839}

$$$$
EPH_relaxed_0001_pdb2pqr_Repair_286_r2_0001_out
     RDKit          3D

 82 86  0  0  0  0  0  0  0  0999 V2000
    0.2770   17.8180   -0.3750 C   0  0  0  0  0  0  0  0  0  0  0  0
    1.2210   17.0830   -1.3310 C   0  0  2  0  0  0  0  0  0  0  0  0
    1.6310   17.9600   -2.5310 C   0  0  0  0  0  0  0  0  0  0  0  0
    3.1320   18.2600   -2.5900 C   0  0  0  0  0  0  0  0  0  0  0  0
    3.9520   17.0540   -2.2410 C   0  0  2  0  0  0  0  0  0  0  0  0
    5.1060   17.3280   -1.4360 O   0  0  0  0  0  0  0  0  0  0  0  0
    5.3590   16.8220   -2.7570 C   0  0  0  0  0  0  0  0  0  0  0  0
    6.0290   17.8040   -3.6670 C   0  0  0  0  0  0  0  0  0  0  0  0
    5.8930   15.4240   -2.7750 C   0  0  0  0  0  0  0  0  0  0  0  0
    0.5640   15.7990   -1.8250 C   0  0  1  0  0  0  0  0  0  0  0  0
    0.1410   15.8800   -3.3160 C   0  0  0  0  0  0  0  0  0  0  0  0
    0.3460   14.4650   -3.9160 C   0  0  0  0  0  0  0  0  0  0  0  0
    0.5580   13.5480   -2.6890 C   0  0  1  0  0  0  0  0  0  0  0  0
   -0.8790   13.2520   -2.1560 C   0  0  0  0  0  0  0  0  0  0  0  0
    1.3630   12.2320   -2.9420 C   0  0  2  0  0  0  0  0  0  0  0  0
    0.7110   11.2470   -3.9280 C   0  0  0  0  0  0  0  0  0  0  0  0
   -0.2020   10.2390   -3.3120 C   0  0  0  0  0  0  0  0  0  0  0  0
   -0.2690    9.9420   -2.0010 C   0  0  0  0  0  0  0  0  0  0  0  0
    0.6990   10.5820   -0.9980 C   0  0  1  0  0  0  0  0  0  0  0  0
    1.2660    9.4870   -0.0560 C   0  0  0  0  0  0  0  0  0  0  0  0
    0.1680    8.6790    0.6280 C   0  0  0  0  0  0  0  0  0  0  0  0
   -0.7400    8.0110   -0.4020 C   0  0  2  0  0  0  0  0  0  0  0  0
    0.0150    7.0210   -1.1080 O   0  0  0  0  0  0  0  0  0  0  0  0
   -1.3610    9.0150   -1.4130 C   0  0  0  0  0  0  0  0  0  0  0  0
   -2.4110    9.8960   -0.6930 C   0  0  0  0  0  0  0  0  0  0  0  0
   -2.1390    8.1980   -2.4800 C   0  0  0  0  0  0  0  0  0  0  0  0
    1.8380   11.4990   -1.6220 C   0  0  1  0  0  0  0  0  0  0  0  0
    3.0680   10.6260   -2.0150 C   0  0  0  0  0  0  0  0  0  0  0  0
    2.3420   12.5090   -0.5250 C   0  0  0  0  0  0  0  0  0  0  0  0
    1.5800   13.8430   -0.4050 C   0  0  0  0  0  0  0  0  0  0  0  0
    1.4110   14.5030   -1.7770 C   0  0  2  0  0  0  0  0  0  0  0  0
    2.8400   14.8330   -2.3280 C   0  0  0  0  0  0  0  0  0  0  0  0
    0.5618   17.5962    0.6641 H   0  0  0  0  0  0  0  0  0  0  0  0
    0.3473   18.9015   -0.5512 H   0  0  0  0  0  0  0  0  0  0  0  0
   -0.7562   17.4842   -0.5512 H   0  0  0  0  0  0  0  0  0  0  0  0
    2.1363   16.8411   -0.7710 H   0  0  0  0  0  0  0  0  0  0  0  0
    1.3444   17.4386   -3.4562 H   0  0  0  0  0  0  0  0  0  0  0  0
    1.1147   18.9244   -2.4156 H   0  0  0  0  0  0  0  0  0  0  0  0
    3.3910   18.5848   -3.6085 H   0  0  0  0  0  0  0  0  0  0  0  0
    3.3533   19.0495   -1.8567 H   0  0  0  0  0  0  0  0  0  0  0  0
    3.0552   16.4170   -2.2324 H   0  0  0  0  0  0  0  0  0  0  0  0
    6.5484   18.5652   -3.0664 H   0  0  0  0  0  0  0  0  0  0  0  0
    6.7574   17.2780   -4.3016 H   0  0  0  0  0  0  0  0  0  0  0  0
    5.2735   18.2903   -4.3016 H   0  0  0  0  0  0  0  0  0  0  0  0
    6.0283   15.0698   -1.7424 H   0  0  0  0  0  0  0  0  0  0  0  0
    5.1826   14.7668   -3.2979 H   0  0  0  0  0  0  0  0  0  0  0  0
    6.8606   15.4078   -3.2979 H   0  0  0  0  0  0  0  0  0  0  0  0
   -0.2688   15.7308   -1.1096 H   0  0  0  0  0  0  0  0  0  0  0  0
   -0.9157   16.1754   -3.3946 H   0  0  0  0  0  0  0  0  0  0  0  0
    0.7388   16.6288   -3.8563 H   0  0  0  0  0  0  0  0  0  0  0  0
   -0.5416   14.1524   -4.4857 H   0  0  0  0  0  0  0  0  0  0  0  0
    1.1936   14.4276   -4.6162 H   0  0  0  0  0  0  0  0  0  0  0  0
   -0.8697   13.2539   -1.0560 H   0  0  0  0  0  0  0  0  0  0  0  0
   -1.5712   14.0264   -2.5182 H   0  0  0  0  0  0  0  0  0  0  0  0
   -1.2088   12.2671   -2.5182 H   0  0  0  0  0  0  0  0  0  0  0  0
    2.2682   12.6026   -3.4452 H   0  0  0  0  0  0  0  0  0  0  0  0
    0.1304   11.8306   -4.6576 H   0  0  0  0  0  0  0  0  0  0  0  0
    1.5362   10.6755   -4.3779 H   0  0  0  0  0  0  0  0  0  0  0  0
   -0.8773    9.6927   -3.9870 H   0  0  0  0  0  0  0  0  0  0  0  0
    0.1040   11.3029   -0.4181 H   0  0  0  0  0  0  0  0  0  0  0  0
    1.8915    8.8022   -0.6475 H   0  0  0  0  0  0  0  0  0  0  0  0
    1.8487    9.9907    0.7293 H   0  0  0  0  0  0  0  0  0  0  0  0
    0.6301    7.9039    1.2570 H   0  0  0  0  0  0  0  0  0  0  0  0
   -0.4392    9.3608    1.2416 H   0  0  0  0  0  0  0  0  0  0  0  0
   -1.5798    7.5557    0.1433 H   0  0  0  0  0  0  0  0  0  0  0  0
   -0.1600    6.1620   -0.6880 H   0  0  0  0  0  0  0  0  0  0  0  0
   -2.2902    9.7946    0.3956 H   0  0  0  0  0  0  0  0  0  0  0  0
   -2.2671   10.9477   -0.9815 H   0  0  0  0  0  0  0  0  0  0  0  0
   -3.4217    9.5716   -0.9815 H   0  0  0  0  0  0  0  0  0  0  0  0
   -2.8141    7.4890   -1.9785 H   0  0  0  0  0  0  0  0  0  0  0  0
   -2.7274    8.8825   -3.1087 H   0  0  0  0  0  0  0  0  0  0  0  0
   -1.4266    7.6437   -3.1087 H   0  0  0  0  0  0  0  0  0  0  0  0
    3.5706   10.2693   -1.1039 H   0  0  0  0  0  0  0  0  0  0  0  0
    2.7309    9.7639   -2.6092 H   0  0  0  0  0  0  0  0  0  0  0  0
    3.7706   11.2287   -2.6092 H   0  0  0  0  0  0  0  0  0  0  0  0
    2.2790   12.0012    0.4487 H   0  0  0  0  0  0  0  0  0  0  0  0
    3.3601   12.7864   -0.8357 H   0  0  0  0  0  0  0  0  0  0  0  0
    0.5867   13.6524    0.0275 H   0  0  0  0  0  0  0  0  0  0  0  0
    2.1578   14.5201    0.2413 H   0  0  0  0  0  0  0  0  0  0  0  0
    3.5298   14.9923   -1.4861 H   0  0  0  0  0  0  0  0  0  0  0  0
    3.1988   13.9941   -2.9424 H   0  0  0  0  0  0  0  0  0  0  0  0
    2.7947   15.7443   -2.9424 H   0  0  0  0  0  0  0  0  0  0  0  0
  1  2  1  0
  2  3  1  0
  3  4  1  0
  4  5  1  0
  5  6  1  0
  6  7  1  0
  7  8  1  0
  7  9  1  0
  2 10  1  0
 10 11  1  0
 11 12  1  0
 12 13  1  0
 13 14  1  1
 13 15  1  0
 15 16  1  0
 16 17  1  0
 17 18  2  0
 18 19  1  0
 19 20  1  0
 20 21  1  0
 21 22  1  0
 22 23  1  0
 22 24  1  0
 24 25  1  0
 24 26  1  0
 19 27  1  0
 27 28  1  6
 27 29  1  0
 29 30  1  0
 30 31  1  0
 31 32  1  6
  7  5  1  0
 31 10  1  0
 31 13  1  0
 27 15  1  0
 24 18  1  0
  1 33  1  0
  1 34  1  0
  1 35  1  0
  2 36  1  1
  3 37  1  0
  3 38  1  0
  4 39  1  0
  4 40  1  0
  5 41  1  1
  8 42  1  0
  8 43  1  0
  8 44  1  0
  9 45  1  0
  9 46  1  0
  9 47  1  0
 10 48  1  1
 11 49  1  0
 11 50  1  0
 12 51  1  0
 12 52  1  0
 14 53  1  0
 14 54  1  0
 14 55  1  0
 15 56  1  6
 16 57  1  0
 16 58  1  0
 17 59  1  0
 19 60  1  1
 20 61  1  0
 20 62  1  0
 21 63  1  0
 21 64  1  0
 22 65  1  1
 23 66  1  0
 25 67  1  0
 25 68  1  0
 25 69  1  0
 26 70  1  0
 26 71  1  0
 26 72  1  0
 28 73  1  0
 28 74  1  0
 28 75  1  0
 29 76  1  0
 29 77  1  0
 30 78  1  0
 30 79  1  0
 32 80  1  0
 32 81  1  0
 32 82  1  0
M  END
>  <meeko>  (12) 
{"is_sidechain": [false], "intermolecular_energy": 2.731, "internal_energy": -0.839}

$$$$
EPH_relaxed_0001_pdb2pqr_Repair_286_r2_0001_out
     RDKit          3D

 82 86  0  0  0  0  0  0  0  0999 V2000
    2.9190   10.1200   -2.8480 C   0  0  0  0  0  0  0  0  0  0  0  0
    1.7040   10.1060   -1.9160 C   0  0  2  0  0  0  0  0  0  0  0  0
    0.7160    8.9740   -2.2660 C   0  0  0  0  0  0  0  0  0  0  0  0
   -0.0030    8.3860   -1.0490 C   0  0  0  0  0  0  0  0  0  0  0  0
   -1.4060    7.9750   -1.3790 C   0  0  2  0  0  0  0  0  0  0  0  0
   -2.1440    8.9310   -2.1520 O   0  0  0  0  0  0  0  0  0  0  0  0
   -2.6340    8.6730   -0.8260 C   0  0  0  0  0  0  0  0  0  0  0  0
   -2.5170    9.8390    0.1040 C   0  0  0  0  0  0  0  0  0  0  0  0
   -3.9300    7.9240   -0.7980 C   0  0  0  0  0  0  0  0  0  0  0  0
    0.9920   11.4530   -1.9690 C   0  0  1  0  0  0  0  0  0  0  0  0
   -0.2960   11.4830   -1.1040 C   0  0  0  0  0  0  0  0  0  0  0  0
   -0.4100   12.9140   -0.5200 C   0  0  0  0  0  0  0  0  0  0  0  0
    0.6180   13.7460   -1.3220 C   0  0  1  0  0  0  0  0  0  0  0  0
   -0.1070   14.0980   -2.6590 C   0  0  0  0  0  0  0  0  0  0  0  0
    1.1770   15.0230   -0.6150 C   0  0  2  0  0  0  0  0  0  0  0  0
    0.1280   16.1000   -0.2880 C   0  0  0  0  0  0  0  0  0  0  0  0
   -0.0870   17.1250   -1.3520 C   0  0  0  0  0  0  0  0  0  0  0  0
    0.7310   17.3500   -2.3970 C   0  0  0  0  0  0  0  0  0  0  0  0
    2.0600   16.5970   -2.5340 C   0  0  1  0  0  0  0  0  0  0  0  0
    3.1890   17.6000   -2.8910 C   0  0  0  0  0  0  0  0  0  0  0  0
    2.8610   18.4340   -4.1260 C   0  0  0  0  0  0  0  0  0  0  0  0
    1.5630   19.2130   -3.9290 C   0  0  2  0  0  0  0  0  0  0  0  0
    1.7640   20.1930   -2.9070 O   0  0  0  0  0  0  0  0  0  0  0  0
    0.3560   18.3070   -3.5550 C   0  0  0  0  0  0  0  0  0  0  0  0
   -0.0520   17.4520   -4.7800 C   0  0  0  0  0  0  0  0  0  0  0  0
   -0.8550   19.2290   -3.2470 C   0  0  0  0  0  0  0  0  0  0  0  0
    2.4490   15.6500   -1.3180 C   0  0  1  0  0  0  0  0  0  0  0  0
    3.2040   16.4670   -0.2260 C   0  0  0  0  0  0  0  0  0  0  0  0
    3.4550   14.5500   -1.8250 C   0  0  0  0  0  0  0  0  0  0  0  0
    2.8420   13.2610   -2.4040 C   0  0  0  0  0  0  0  0  0  0  0  0
    1.7750   12.6910   -1.4640 C   0  0  2  0  0  0  0  0  0  0  0  0
    2.4800   12.3060   -0.1180 C   0  0  0  0  0  0  0  0  0  0  0  0
    3.8411   10.1306   -2.2483 H   0  0  0  0  0  0  0  0  0  0  0  0
    2.9047    9.2216   -3.4826 H   0  0  0  0  0  0  0  0  0  0  0  0
    2.8840   11.0178   -3.4826 H   0  0  0  0  0  0  0  0  0  0  0  0
    2.0720    9.9198   -0.8962 H   0  0  0  0  0  0  0  0  0  0  0  0
   -0.0409    9.3748   -2.9563 H   0  0  0  0  0  0  0  0  0  0  0  0
    1.3051    8.1608   -2.7150 H   0  0  0  0  0  0  0  0  0  0  0  0
    0.5534    7.5045   -0.6978 H   0  0  0  0  0  0  0  0  0  0  0  0
   -0.0471    9.1608   -0.2694 H   0  0  0  0  0  0  0  0  0  0  0  0
   -1.1125    6.9154   -1.4135 H   0  0  0  0  0  0  0  0  0  0  0  0
   -2.5527    9.4833    1.1443 H   0  0  0  0  0  0  0  0  0  0  0  0
   -1.5625   10.3558   -0.0742 H   0  0  0  0  0  0  0  0  0  0  0  0
   -3.3498   10.5352   -0.0742 H   0  0  0  0  0  0  0  0  0  0  0  0
   -4.2306    7.7503    0.2458 H   0  0  0  0  0  0  0  0  0  0  0  0
   -4.7052    8.5133   -1.3096 H   0  0  0  0  0  0  0  0  0  0  0  0
   -3.8064    6.9581   -1.3096 H   0  0  0  0  0  0  0  0  0  0  0  0
    0.8239   11.5300   -3.0533 H   0  0  0  0  0  0  0  0  0  0  0  0
   -1.1749   11.2565   -1.7255 H   0  0  0  0  0  0  0  0  0  0  0  0
   -0.2502   10.7318   -0.3017 H   0  0  0  0  0  0  0  0  0  0  0  0
   -1.4260   13.3113   -0.6613 H   0  0  0  0  0  0  0  0  0  0  0  0
   -0.2140   12.9397    0.5621 H   0  0  0  0  0  0  0  0  0  0  0  0
   -1.0763   14.5686   -2.4376 H   0  0  0  0  0  0  0  0  0  0  0  0
    0.5145   14.7947   -3.2407 H   0  0  0  0  0  0  0  0  0  0  0  0
   -0.2701   13.1788   -3.2407 H   0  0  0  0  0  0  0  0  0  0  0  0
    1.5115   14.6271    0.3552 H   0  0  0  0  0  0  0  0  0  0  0  0
   -0.8317   15.5949   -0.1038 H   0  0  0  0  0  0  0  0  0  0  0  0
    0.5139   16.6451    0.5860 H   0  0  0  0  0  0  0  0  0  0  0  0
   -0.9898   17.7488   -1.2755 H   0  0  0  0  0  0  0  0  0  0  0  0
    1.9205   15.8820   -3.3582 H   0  0  0  0  0  0  0  0  0  0  0  0
    3.3415   18.2777   -2.0381 H   0  0  0  0  0  0  0  0  0  0  0  0
    4.0957   17.0177   -3.1122 H   0  0  0  0  0  0  0  0  0  0  0  0
    3.6818   19.1427   -4.3102 H   0  0  0  0  0  0  0  0  0  0  0  0
    2.7375   17.7571   -4.9842 H   0  0  0  0  0  0  0  0  0  0  0  0
    1.3135   19.6872   -4.8897 H   0  0  0  0  0  0  0  0  0  0  0  0
    2.1800   20.9680   -3.3200 H   0  0  0  0  0  0  0  0  0  0  0  0
   -0.5019   16.5092   -4.4356 H   0  0  0  0  0  0  0  0  0  0  0  0
   -0.7825   18.0066   -5.3873 H   0  0  0  0  0  0  0  0  0  0  0  0
    0.8386   17.2330   -5.3873 H   0  0  0  0  0  0  0  0  0  0  0  0
   -0.9773   19.3221   -2.1578 H   0  0  0  0  0  0  0  0  0  0  0  0
   -0.6787   20.2236   -3.6825 H   0  0  0  0  0  0  0  0  0  0  0  0
   -1.7668   18.7944   -3.6825 H   0  0  0  0  0  0  0  0  0  0  0  0
    2.8885   16.1256    0.7710 H   0  0  0  0  0  0  0  0  0  0  0  0
    4.2877   16.3164   -0.3392 H   0  0  0  0  0  0  0  0  0  0  0  0
    2.9685   17.5355   -0.3392 H   0  0  0  0  0  0  0  0  0  0  0  0
    4.0768   15.0045   -2.6104 H   0  0  0  0  0  0  0  0  0  0  0  0
    4.0057   14.2289   -0.9285 H   0  0  0  0  0  0  0  0  0  0  0  0
    2.3809   13.4872   -3.3767 H   0  0  0  0  0  0  0  0  0  0  0  0
    3.6413   12.5144   -2.5211 H   0  0  0  0  0  0  0  0  0  0  0  0
    1.8633   12.6428    0.7283 H   0  0  0  0  0  0  0  0  0  0  0  0
    2.6052   11.2143   -0.0689 H   0  0  0  0  0  0  0  0  0  0  0  0
    3.4662   12.7908   -0.0689 H   0  0  0  0  0  0  0  0  0  0  0  0
  1  2  1  0
  2  3  1  0
  3  4  1  0
  4  5  1  0
  5  6  1  0
  6  7  1  0
  7  8  1  0
  7  9  1  0
  2 10  1  0
 10 11  1  0
 11 12  1  0
 12 13  1  0
 13 14  1  6
 13 15  1  0
 15 16  1  0
 16 17  1  0
 17 18  2  0
 18 19  1  0
 19 20  1  0
 20 21  1  0
 21 22  1  0
 22 23  1  0
 22 24  1  0
 24 25  1  0
 24 26  1  0
 19 27  1  0
 27 28  1  1
 27 29  1  0
 29 30  1  0
 30 31  1  0
 31 32  1  1
  7  5  1  0
 31 10  1  0
 31 13  1  0
 27 15  1  0
 24 18  1  0
  1 33  1  0
  1 34  1  0
  1 35  1  0
  2 36  1  1
  3 37  1  0
  3 38  1  0
  4 39  1  0
  4 40  1  0
  5 41  1  6
  8 42  1  0
  8 43  1  0
  8 44  1  0
  9 45  1  0
  9 46  1  0
  9 47  1  0
 10 48  1  6
 11 49  1  0
 11 50  1  0
 12 51  1  0
 12 52  1  0
 14 53  1  0
 14 54  1  0
 14 55  1  0
 15 56  1  1
 16 57  1  0
 16 58  1  0
 17 59  1  0
 19 60  1  6
 20 61  1  0
 20 62  1  0
 21 63  1  0
 21 64  1  0
 22 65  1  6
 23 66  1  0
 25 67  1  0
 25 68  1  0
 25 69  1  0
 26 70  1  0
 26 71  1  0
 26 72  1  0
 28 73  1  0
 28 74  1  0
 28 75  1  0
 29 76  1  0
 29 77  1  0
 30 78  1  0
 30 79  1  0
 32 80  1  0
 32 81  1  0
 32 82  1  0
M  END
>  <meeko>  (13) 
{"is_sidechain": [false], "intermolecular_energy": 2.731, "internal_energy": -0.839}

$$$$
EPH_relaxed_0001_pdb2pqr_Repair_286_r2_0001_out
     RDKit          3D

 82 86  0  0  0  0  0  0  0  0999 V2000
    2.2290   19.2800    0.0550 C   0  0  0  0  0  0  0  0  0  0  0  0
    2.8850   17.9260   -0.2260 C   0  0  2  0  0  0  0  0  0  0  0  0
    3.6930   17.9330   -1.5390 C   0  0  0  0  0  0  0  0  0  0  0  0
    5.1620   17.5400   -1.3600 C   0  0  0  0  0  0  0  0  0  0  0  0
    5.9630   17.8090   -2.5980 C   0  0  2  0  0  0  0  0  0  0  0  0
    5.2350   17.6650   -3.8250 O   0  0  0  0  0  0  0  0  0  0  0  0
    6.3140   16.7390   -3.6160 C   0  0  0  0  0  0  0  0  0  0  0  0
    5.8740   15.3200   -3.4400 C   0  0  0  0  0  0  0  0  0  0  0  0
    7.4870   16.9680   -4.5180 C   0  0  0  0  0  0  0  0  0  0  0  0
    1.8230   16.8340   -0.2740 C   0  0  1  0  0  0  0  0  0  0  0  0
    0.4180   17.3830   -0.6400 C   0  0  0  0  0  0  0  0  0  0  0  0
   -0.2820   16.2900   -1.4880 C   0  0  0  0  0  0  0  0  0  0  0  0
    0.5970   15.0310   -1.3050 C   0  0  1  0  0  0  0  0  0  0  0  0
    0.1550   14.4290    0.0660 C   0  0  0  0  0  0  0  0  0  0  0  0
    0.5310   13.9690   -2.4500 C   0  0  2  0  0  0  0  0  0  0  0  0
   -0.8510   13.3270   -2.6650 C   0  0  0  0  0  0  0  0  0  0  0  0
   -1.1050   12.0830   -1.8790 C   0  0  0  0  0  0  0  0  0  0  0  0
   -0.1670   11.3470   -1.2550 C   0  0  0  0  0  0  0  0  0  0  0  0
    1.3220   11.6920   -1.3870 C   0  0  1  0  0  0  0  0  0  0  0  0
    2.1280   10.4010   -1.6840 C   0  0  0  0  0  0  0  0  0  0  0  0
    1.8730    9.3020   -0.6580 C   0  0  0  0  0  0  0  0  0  0  0  0
    0.3900    8.9460   -0.5980 C   0  0  2  0  0  0  0  0  0  0  0  0
    0.0110    8.3400   -1.8380 O   0  0  0  0  0  0  0  0  0  0  0  0
   -0.5240   10.1710   -0.3130 C   0  0  0  0  0  0  0  0  0  0  0  0
   -0.3230   10.6410    1.1490 C   0  0  0  0  0  0  0  0  0  0  0  0
   -2.0000    9.7010   -0.4190 C   0  0  0  0  0  0  0  0  0  0  0  0
    1.6730   12.8760   -2.3880 C   0  0  1  0  0  0  0  0  0  0  0  0
    1.8350   12.3180   -3.8350 C   0  0  0  0  0  0  0  0  0  0  0  0
    3.0670   13.4890   -1.9890 C   0  0  0  0  0  0  0  0  0  0  0  0
    3.0560   14.6170   -0.9400 C   0  0  0  0  0  0  0  0  0  0  0  0
    2.0240   15.6910   -1.3000 C   0  0  2  0  0  0  0  0  0  0  0  0
    2.4550   16.3300   -2.6640 C   0  0  0  0  0  0  0  0  0  0  0  0
    2.1549   19.4330    1.1418 H   0  0  0  0  0  0  0  0  0  0  0  0
    2.8386   20.0816   -0.3874 H   0  0  0  0  0  0  0  0  0  0  0  0
    1.2221   19.2984   -0.3874 H   0  0  0  0  0  0  0  0  0  0  0  0
    3.5898   17.7236    0.5939 H   0  0  0  0  0  0  0  0  0  0  0  0
    3.2263   17.2231   -2.2377 H   0  0  0  0  0  0  0  0  0  0  0  0
    3.6804   18.9654   -1.9186 H   0  0  0  0  0  0  0  0  0  0  0  0
    5.5871   18.1197   -0.5274 H   0  0  0  0  0  0  0  0  0  0  0  0
    5.2051   16.4608   -1.1516 H   0  0  0  0  0  0  0  0  0  0  0  0
    6.5759   18.5534   -2.0686 H   0  0  0  0  0  0  0  0  0  0  0  0
    5.8023   15.0888   -2.3670 H   0  0  0  0  0  0  0  0  0  0  0  0
    4.8902   15.1799   -3.9118 H   0  0  0  0  0  0  0  0  0  0  0  0
    6.6059   14.6479   -3.9118 H   0  0  0  0  0  0  0  0  0  0  0  0
    8.3874   17.1438   -3.9111 H   0  0  0  0  0  0  0  0  0  0  0  0
    7.6398   16.0827   -5.1528 H   0  0  0  0  0  0  0  0  0  0  0  0
    7.2956   17.8457   -5.1528 H   0  0  0  0  0  0  0  0  0  0  0  0
    1.9158   16.4415    0.7494 H   0  0  0  0  0  0  0  0  0  0  0  0
   -0.1609   17.5820    0.2740 H   0  0  0  0  0  0  0  0  0  0  0  0
    0.4961   18.3271   -1.1990 H   0  0  0  0  0  0  0  0  0  0  0  0
   -1.3026   16.1077   -1.1204 H   0  0  0  0  0  0  0  0  0  0  0  0
   -0.3794   16.5806   -2.5445 H   0  0  0  0  0  0  0  0  0  0  0  0
    0.5902   15.0217    0.8841 H   0  0  0  0  0  0  0  0  0  0  0  0
   -0.9423   14.4521    0.1399 H   0  0  0  0  0  0  0  0  0  0  0  0
    0.5057   13.3890    0.1399 H   0  0  0  0  0  0  0  0  0  0  0  0
    0.7210   14.5772   -3.3467 H   0  0  0  0  0  0  0  0  0  0  0  0
   -1.6164   14.0667   -2.3876 H   0  0  0  0  0  0  0  0  0  0  0  0
   -0.8880   13.0312   -3.7238 H   0  0  0  0  0  0  0  0  0  0  0  0
   -2.1471   11.7391   -1.8037 H   0  0  0  0  0  0  0  0  0  0  0  0
    1.6263   12.1057   -0.4142 H   0  0  0  0  0  0  0  0  0  0  0  0
    1.8420   10.0279   -2.6785 H   0  0  0  0  0  0  0  0  0  0  0  0
    3.1967   10.6575   -1.6392 H   0  0  0  0  0  0  0  0  0  0  0  0
    2.4471    8.4068   -0.9390 H   0  0  0  0  0  0  0  0  0  0  0  0
    2.1874    9.6653    0.3315 H   0  0  0  0  0  0  0  0  0  0  0  0
    0.2516    8.2503    0.2427 H   0  0  0  0  0  0  0  0  0  0  0  0
    0.3370    7.4250   -1.8300 H   0  0  0  0  0  0  0  0  0  0  0  0
   -0.6604    9.8521    1.8374 H   0  0  0  0  0  0  0  0  0  0  0  0
    0.7429   10.8492    1.3240 H   0  0  0  0  0  0  0  0  0  0  0  0
   -0.9087   11.5555    1.3240 H   0  0  0  0  0  0  0  0  0  0  0  0
   -2.4160    9.5685    0.5906 H   0  0  0  0  0  0  0  0  0  0  0  0
   -2.5873   10.4566   -0.9614 H   0  0  0  0  0  0  0  0  0  0  0  0
   -2.0423    8.7449   -0.9614 H   0  0  0  0  0  0  0  0  0  0  0  0
    2.1414   11.2626   -3.7888 H   0  0  0  0  0  0  0  0  0  0  0  0
    0.8764   12.3985   -4.3685 H   0  0  0  0  0  0  0  0  0  0  0  0
    2.6015   12.8993   -4.3685 H   0  0  0  0  0  0  0  0  0  0  0  0
    3.6883   12.6723   -1.5927 H   0  0  0  0  0  0  0  0  0  0  0  0
    3.4497   13.9555   -2.9087 H   0  0  0  0  0  0  0  0  0  0  0  0
    2.8049   14.1918    0.0429 H   0  0  0  0  0  0  0  0  0  0  0  0
    4.0524   15.0824   -0.9151 H   0  0  0  0  0  0  0  0  0  0  0  0
    3.0608   17.2281   -2.4730 H   0  0  0  0  0  0  0  0  0  0  0  0
    3.0480   15.6030   -3.2383 H   0  0  0  0  0  0  0  0  0  0  0  0
    1.5588   16.6075   -3.2383 H   0  0  0  0  0  0  0  0  0  0  0  0
  1  2  1  0
  2  3  1  0
  3  4  1  0
  4  5  1  0
  5  6  1  0
  6  7  1  0
  7  8  1  0
  7  9  1  0
  2 10  1  0
 10 11  1  0
 11 12  1  0
 12 13  1  0
 13 14  1  1
 13 15  1  0
 15 16  1  0
 16 17  1  0
 17 18  2  0
 18 19  1  0
 19 20  1  0
 20 21  1  0
 21 22  1  0
 22 23  1  0
 22 24  1  0
 24 25  1  0
 24 26  1  0
 19 27  1  0
 27 28  1  6
 27 29  1  0
 29 30  1  0
 30 31  1  0
 31 32  1  6
  7  5  1  0
 31 10  1  0
 31 13  1  0
 27 15  1  0
 24 18  1  0
  1 33  1  0
  1 34  1  0
  1 35  1  0
  2 36  1  1
  3 37  1  0
  3 38  1  0
  4 39  1  0
  4 40  1  0
  5 41  1  1
  8 42  1  0
  8 43  1  0
  8 44  1  0
  9 45  1  0
  9 46  1  0
  9 47  1  0
 10 48  1  1
 11 49  1  0
 11 50  1  0
 12 51  1  0
 12 52  1  0
 14 53  1  0
 14 54  1  0
 14 55  1  0
 15 56  1  6
 16 57  1  0
 16 58  1  0
 17 59  1  0
 19 60  1  1
 20 61  1  0
 20 62  1  0
 21 63  1  0
 21 64  1  0
 22 65  1  1
 23 66  1  0
 25 67  1  0
 25 68  1  0
 25 69  1  0
 26 70  1  0
 26 71  1  0
 26 72  1  0
 28 73  1  0
 28 74  1  0
 28 75  1  0
 29 76  1  0
 29 77  1  0
 30 78  1  0
 30 79  1  0
 32 80  1  0
 32 81  1  0
 32 82  1  0
M  END
>  <meeko>  (14) 
{"is_sidechain": [false], "intermolecular_energy": 2.731, "internal_energy": -0.839}

$$$$
EPH_relaxed_0001_pdb2pqr_Repair_286_r2_0001_out
     RDKit          3D

 82 86  0  0  0  0  0  0  0  0999 V2000
    0.1800   10.4220   -3.8910 C   0  0  0  0  0  0  0  0  0  0  0  0
    1.0980   10.1980   -2.6860 C   0  0  2  0  0  0  0  0  0  0  0  0
    0.7040    8.9440   -1.8800 C   0  0  0  0  0  0  0  0  0  0  0  0
   -0.7790    8.5800   -1.9950 C   0  0  0  0  0  0  0  0  0  0  0  0
   -1.5030    8.7880   -0.7000 C   0  0  2  0  0  0  0  0  0  0  0  0
   -2.9080    9.0400   -0.8330 O   0  0  0  0  0  0  0  0  0  0  0  0
   -2.1210   10.1130   -0.2900 C   0  0  0  0  0  0  0  0  0  0  0  0
   -2.0410   11.3170   -1.1750 C   0  0  0  0  0  0  0  0  0  0  0  0
   -2.3700   10.3670    1.1640 C   0  0  0  0  0  0  0  0  0  0  0  0
    1.0800   11.4250   -1.7830 C   0  0  1  0  0  0  0  0  0  0  0  0
    1.5500   11.1110   -0.3380 C   0  0  0  0  0  0  0  0  0  0  0  0
    2.3130   12.3620    0.1670 C   0  0  0  0  0  0  0  0  0  0  0  0
    1.9750   13.4660   -0.8620 C   0  0  1  0  0  0  0  0  0  0  0  0
    0.5690   13.9950   -0.4350 C   0  0  0  0  0  0  0  0  0  0  0  0
    3.0120   14.6280   -0.9960 C   0  0  2  0  0  0  0  0  0  0  0  0
    3.2150   15.4710    0.2750 C   0  0  0  0  0  0  0  0  0  0  0  0
    2.3220   16.6610    0.4000 C   0  0  0  0  0  0  0  0  0  0  0  0
    1.5940   17.2010   -0.5950 C   0  0  0  0  0  0  0  0  0  0  0  0
    1.7020   16.6670   -2.0290 C   0  0  1  0  0  0  0  0  0  0  0  0
    1.8410   17.8570   -3.0150 C   0  0  0  0  0  0  0  0  0  0  0  0
    0.7220   18.8810   -2.8570 C   0  0  0  0  0  0  0  0  0  0  0  0
    0.6840   19.4310   -1.4340 C   0  0  2  0  0  0  0  0  0  0  0  0
    1.8720   20.1940   -1.2020 O   0  0  0  0  0  0  0  0  0  0  0  0
    0.5550   18.3230   -0.3520 C   0  0  0  0  0  0  0  0  0  0  0  0
   -0.8600   17.6970   -0.4130 C   0  0  0  0  0  0  0  0  0  0  0  0
    0.6700   19.0000    1.0410 C   0  0  0  0  0  0  0  0  0  0  0  0
    2.8000   15.5430   -2.2700 C   0  0  1  0  0  0  0  0  0  0  0  0
    4.1790   16.2040   -2.5780 C   0  0  0  0  0  0  0  0  0  0  0  0
    2.4110   14.7100   -3.5480 C   0  0  0  0  0  0  0  0  0  0  0  0
    1.4790   13.5030   -3.3330 C   0  0  0  0  0  0  0  0  0  0  0  0
    1.9810   12.6190   -2.1870 C   0  0  2  0  0  0  0  0  0  0  0  0
    3.3830   12.0540   -2.5970 C   0  0  0  0  0  0  0  0  0  0  0  0
   -0.8326   10.6691   -3.5396 H   0  0  0  0  0  0  0  0  0  0  0  0
    0.5695   11.2515   -4.4995 H   0  0  0  0  0  0  0  0  0  0  0  0
    0.1437    9.5064   -4.4995 H   0  0  0  0  0  0  0  0  0  0  0  0
    2.1153   10.0356   -3.0716 H   0  0  0  0  0  0  0  0  0  0  0  0
    1.2996    8.0946   -2.2458 H   0  0  0  0  0  0  0  0  0  0  0  0
    0.8992    9.1678   -0.8208 H   0  0  0  0  0  0  0  0  0  0  0  0
   -1.2421    9.2113   -2.7676 H   0  0  0  0  0  0  0  0  0  0  0  0
   -0.8509    7.5150   -2.2607 H   0  0  0  0  0  0  0  0  0  0  0  0
   -0.8196    8.1002   -0.1804 H   0  0  0  0  0  0  0  0  0  0  0  0
   -1.9807   12.2240   -0.5556 H   0  0  0  0  0  0  0  0  0  0  0  0
   -1.1456   11.2465   -1.8100 H   0  0  0  0  0  0  0  0  0  0  0  0
   -2.9379   11.3656   -1.8100 H   0  0  0  0  0  0  0  0  0  0  0  0
   -1.7258    9.7098    1.7666 H   0  0  0  0  0  0  0  0  0  0  0  0
   -2.1422   11.4176    1.3969 H   0  0  0  0  0  0  0  0  0  0  0  0
   -3.4250   10.1602    1.3969 H   0  0  0  0  0  0  0  0  0  0  0  0
    0.0203   11.7053   -1.8751 H   0  0  0  0  0  0  0  0  0  0  0  0
    0.6820   10.9108    0.3074 H   0  0  0  0  0  0  0  0  0  0  0  0
    2.1954   10.2205   -0.3178 H   0  0  0  0  0  0  0  0  0  0  0  0
    1.9678   12.6483    1.1714 H   0  0  0  0  0  0  0  0  0  0  0  0
    3.3956   12.1856    0.2495 H   0  0  0  0  0  0  0  0  0  0  0  0
    0.5043   14.0193    0.6628 H   0  0  0  0  0  0  0  0  0  0  0  0
    0.4225   15.0097   -0.8335 H   0  0  0  0  0  0  0  0  0  0  0  0
   -0.2101   13.3285   -0.8335 H   0  0  0  0  0  0  0  0  0  0  0  0
    3.9565   14.0849   -1.1477 H   0  0  0  0  0  0  0  0  0  0  0  0
    3.0397   14.8215    1.1453 H   0  0  0  0  0  0  0  0  0  0  0  0
    4.2406   15.8646    0.2187 H   0  0  0  0  0  0  0  0  0  0  0  0
    2.2532   17.1369    1.3894 H   0  0  0  0  0  0  0  0  0  0  0  0
    0.7634   16.1276   -2.2243 H   0  0  0  0  0  0  0  0  0  0  0  0
    2.8041   18.3560   -2.8319 H   0  0  0  0  0  0  0  0  0  0  0  0
    1.7821   17.4530   -4.0364 H   0  0  0  0  0  0  0  0  0  0  0  0
    0.8911   19.7105   -3.5593 H   0  0  0  0  0  0  0  0  0  0  0  0
   -0.2382   18.3878   -3.0689 H   0  0  0  0  0  0  0  0  0  0  0  0
   -0.2146   20.0596   -1.3478 H   0  0  0  0  0  0  0  0  0  0  0  0
    1.7210   20.7410   -0.4120 H   0  0  0  0  0  0  0  0  0  0  0  0
   -1.2324   17.5322    0.6088 H   0  0  0  0  0  0  0  0  0  0  0  0
   -1.5397   18.3784   -0.9456 H   0  0  0  0  0  0  0  0  0  0  0  0
   -0.8130   16.7357   -0.9456 H   0  0  0  0  0  0  0  0  0  0  0  0
    0.5414   18.2428    1.8284 H   0  0  0  0  0  0  0  0  0  0  0  0
    1.6605   19.4680    1.1406 H   0  0  0  0  0  0  0  0  0  0  0  0
   -0.1104   19.7688    1.1406 H   0  0  0  0  0  0  0  0  0  0  0  0
    4.6878   16.4479   -1.6337 H   0  0  0  0  0  0  0  0  0  0  0  0
    4.7990   15.5052   -3.1587 H   0  0  0  0  0  0  0  0  0  0  0  0
    4.0226   17.1250   -3.1587 H   0  0  0  0  0  0  0  0  0  0  0  0
    1.9135   15.3934   -4.2519 H   0  0  0  0  0  0  0  0  0  0  0  0
    3.3569   14.2821   -3.9116 H   0  0  0  0  0  0  0  0  0  0  0  0
    0.4694   13.8667   -3.0911 H   0  0  0  0  0  0  0  0  0  0  0  0
    1.4622   12.9045   -4.2558 H   0  0  0  0  0  0  0  0  0  0  0  0
    3.9630   11.8202   -1.6921 H   0  0  0  0  0  0  0  0  0  0  0  0
    3.2496   11.1394   -3.1934 H   0  0  0  0  0  0  0  0  0  0  0  0
    3.9210   12.8055   -3.1934 H   0  0  0  0  0  0  0  0  0  0  0  0
  1  2  1  0
  2  3  1  0
  3  4  1  0
  4  5  1  0
  5  6  1  0
  6  7  1  0
  7  8  1  0
  7  9  1  0
  2 10  1  0
 10 11  1  0
 11 12  1  0
 12 13  1  0
 13 14  1  1
 13 15  1  0
 15 16  1  0
 16 17  1  0
 17 18  2  0
 18 19  1  0
 19 20  1  0
 20 21  1  0
 21 22  1  0
 22 23  1  0
 22 24  1  0
 24 25  1  0
 24 26  1  0
 19 27  1  0
 27 28  1  6
 27 29  1  0
 29 30  1  0
 30 31  1  0
 31 32  1  6
  7  5  1  0
 31 10  1  0
 31 13  1  0
 27 15  1  0
 24 18  1  0
  1 33  1  0
  1 34  1  0
  1 35  1  0
  2 36  1  6
  3 37  1  0
  3 38  1  0
  4 39  1  0
  4 40  1  0
  5 41  1  1
  8 42  1  0
  8 43  1  0
  8 44  1  0
  9 45  1  0
  9 46  1  0
  9 47  1  0
 10 48  1  1
 11 49  1  0
 11 50  1  0
 12 51  1  0
 12 52  1  0
 14 53  1  0
 14 54  1  0
 14 55  1  0
 15 56  1  6
 16 57  1  0
 16 58  1  0
 17 59  1  0
 19 60  1  6
 20 61  1  0
 20 62  1  0
 21 63  1  0
 21 64  1  0
 22 65  1  6
 23 66  1  0
 25 67  1  0
 25 68  1  0
 25 69  1  0
 26 70  1  0
 26 71  1  0
 26 72  1  0
 28 73  1  0
 28 74  1  0
 28 75  1  0
 29 76  1  0
 29 77  1  0
 30 78  1  0
 30 79  1  0
 32 80  1  0
 32 81  1  0
 32 82  1  0
M  END
>  <meeko>  (15) 
{"is_sidechain": [false], "intermolecular_energy": 2.731, "internal_energy": -0.839}

$$$$
EPH_relaxed_0001_pdb2pqr_Repair_286_r2_0001_out
     RDKit          3D

 82 86  0  0  0  0  0  0  0  0999 V2000
   -1.2800   10.4070    1.6090 C   0  0  0  0  0  0  0  0  0  0  0  0
   -1.9070   10.1150    0.2430 C   0  0  2  0  0  0  0  0  0  0  0  0
   -2.6910    8.7880    0.2360 C   0  0  0  0  0  0  0  0  0  0  0  0
   -4.0860    8.9000   -0.3860 C   0  0  0  0  0  0  0  0  0  0  0  0
   -4.6110    7.5630   -0.8140 C   0  0  2  0  0  0  0  0  0  0  0  0
   -4.7940    7.4180   -2.2290 O   0  0  0  0  0  0  0  0  0  0  0  0
   -5.9840    7.3610   -1.4270 C   0  0  0  0  0  0  0  0  0  0  0  0
   -6.9190    8.5100   -1.6430 C   0  0  0  0  0  0  0  0  0  0  0  0
   -6.6030    6.0000   -1.3620 C   0  0  0  0  0  0  0  0  0  0  0  0
   -0.8250   10.0860   -0.8300 C   0  0  1  0  0  0  0  0  0  0  0  0
   -1.2200    9.2170   -2.0540 C   0  0  0  0  0  0  0  0  0  0  0  0
   -0.6140    9.9040   -3.3040 C   0  0  0  0  0  0  0  0  0  0  0  0
    0.3780   10.9460   -2.7350 C   0  0  1  0  0  0  0  0  0  0  0  0
    1.6670   10.1320   -2.4020 C   0  0  0  0  0  0  0  0  0  0  0  0
    0.6910   12.1740   -3.6500 C   0  0  2  0  0  0  0  0  0  0  0  0
    1.3680   11.8340   -4.9900 C   0  0  0  0  0  0  0  0  0  0  0  0
    2.8600   11.8270   -4.9660 C   0  0  0  0  0  0  0  0  0  0  0  0
    3.6300   12.3570   -3.9970 C   0  0  0  0  0  0  0  0  0  0  0  0
    3.0040   13.1310   -2.8290 C   0  0  1  0  0  0  0  0  0  0  0  0
    3.7880   14.4500   -2.6020 C   0  0  0  0  0  0  0  0  0  0  0  0
    5.2840   14.2170   -2.4130 C   0  0  0  0  0  0  0  0  0  0  0  0
    5.8810   13.4970   -3.6200 C   0  0  2  0  0  0  0  0  0  0  0  0
    5.8180   14.3690   -4.7530 O   0  0  0  0  0  0  0  0  0  0  0  0
    5.1650   12.1580   -3.9510 C   0  0  0  0  0  0  0  0  0  0  0  0
    5.4860   11.1120   -2.8550 C   0  0  0  0  0  0  0  0  0  0  0  0
    5.7700   11.6060   -5.2690 C   0  0  0  0  0  0  0  0  0  0  0  0
    1.4330   13.3610   -2.9120 C   0  0  1  0  0  0  0  0  0  0  0  0
    1.1270   14.6540   -3.7270 C   0  0  0  0  0  0  0  0  0  0  0  0
    0.8730   13.6070   -1.4610 C   0  0  0  0  0  0  0  0  0  0  0  0
    0.4690   12.3600   -0.6510 C   0  0  0  0  0  0  0  0  0  0  0  0
   -0.4300   11.4370   -1.4790 C   0  0  2  0  0  0  0  0  0  0  0  0
   -1.7460   12.2210   -1.8100 C   0  0  0  0  0  0  0  0  0  0  0  0
   -1.9686   10.0863    2.4046 H   0  0  0  0  0  0  0  0  0  0  0  0
   -0.3313    9.8581    1.7019 H   0  0  0  0  0  0  0  0  0  0  0  0
   -1.0896   11.4864    1.7019 H   0  0  0  0  0  0  0  0  0  0  0  0
   -2.6224   10.9224    0.0279 H   0  0  0  0  0  0  0  0  0  0  0  0
   -2.1140    8.0469   -0.3366 H   0  0  0  0  0  0  0  0  0  0  0  0
   -2.8303    8.4915    1.2861 H   0  0  0  0  0  0  0  0  0  0  0  0
   -4.7735    9.3321    0.3560 H   0  0  0  0  0  0  0  0  0  0  0  0
   -4.0138    9.5413   -1.2768 H   0  0  0  0  0  0  0  0  0  0  0  0
   -4.0955    7.0660    0.0210 H   0  0  0  0  0  0  0  0  0  0  0  0
   -7.2425    8.9075   -0.6697 H   0  0  0  0  0  0  0  0  0  0  0  0
   -6.4042    9.3003   -2.2090 H   0  0  0  0  0  0  0  0  0  0  0  0
   -7.7974    8.1665   -2.2090 H   0  0  0  0  0  0  0  0  0  0  0  0
   -6.7360    5.7076   -0.3100 H   0  0  0  0  0  0  0  0  0  0  0  0
   -7.5815    6.0179   -1.8641 H   0  0  0  0  0  0  0  0  0  0  0  0
   -5.9464    5.2742   -1.8641 H   0  0  0  0  0  0  0  0  0  0  0  0
    0.0136    9.6950   -0.2352 H   0  0  0  0  0  0  0  0  0  0  0  0
   -0.8122    8.2012   -1.9449 H   0  0  0  0  0  0  0  0  0  0  0  0
   -2.3132    9.1312   -2.1413 H   0  0  0  0  0  0  0  0  0  0  0  0
   -0.0883    9.1708   -3.9334 H   0  0  0  0  0  0  0  0  0  0  0  0
   -1.3835   10.3652   -3.9405 H   0  0  0  0  0  0  0  0  0  0  0  0
    1.7828   10.0589   -1.3106 H   0  0  0  0  0  0  0  0  0  0  0  0
    1.5839    9.1222   -2.8304 H   0  0  0  0  0  0  0  0  0  0  0  0
    2.5430   10.6410   -2.8304 H   0  0  0  0  0  0  0  0  0  0  0  0
   -0.3146   12.5380   -3.9073 H   0  0  0  0  0  0  0  0  0  0  0  0
    1.0282   10.8343   -5.2986 H   0  0  0  0  0  0  0  0  0  0  0  0
    1.0784   12.6326   -5.6888 H   0  0  0  0  0  0  0  0  0  0  0  0
    3.3746   11.3480   -5.8120 H   0  0  0  0  0  0  0  0  0  0  0  0
    3.1029   12.4818   -1.9465 H   0  0  0  0  0  0  0  0  0  0  0  0
    3.6404   15.1025   -3.4752 H   0  0  0  0  0  0  0  0  0  0  0  0
    3.4034   14.9124   -1.6810 H   0  0  0  0  0  0  0  0  0  0  0  0
    5.7865   15.1875   -2.2880 H   0  0  0  0  0  0  0  0  0  0  0  0
    5.4317   13.5897   -1.5216 H   0  0  0  0  0  0  0  0  0  0  0  0
    6.9217   13.2423   -3.3711 H   0  0  0  0  0  0  0  0  0  0  0  0
    4.8840   14.4580   -5.0050 H   0  0  0  0  0  0  0  0  0  0  0  0
    5.3467   11.5660   -1.8628 H   0  0  0  0  0  0  0  0  0  0  0  0
    4.8110   10.2500   -2.9619 H   0  0  0  0  0  0  0  0  0  0  0  0
    6.5283   10.7770   -2.9619 H   0  0  0  0  0  0  0  0  0  0  0  0
    6.5637   10.8818   -5.0331 H   0  0  0  0  0  0  0  0  0  0  0  0
    4.9822   11.1089   -5.8541 H   0  0  0  0  0  0  0  0  0  0  0  0
    6.1930   12.4359   -5.8541 H   0  0  0  0  0  0  0  0  0  0  0  0
    0.9301   15.4858   -3.0347 H   0  0  0  0  0  0  0  0  0  0  0  0
    1.9915   14.9012   -4.3607 H   0  0  0  0  0  0  0  0  0  0  0  0
    0.2435   14.4875   -4.3607 H   0  0  0  0  0  0  0  0  0  0  0  0
    1.6495   14.1373   -0.8902 H   0  0  0  0  0  0  0  0  0  0  0  0
   -0.0602   14.1714   -1.6047 H   0  0  0  0  0  0  0  0  0  0  0  0
    1.3763   11.8112   -0.3585 H   0  0  0  0  0  0  0  0  0  0  0  0
   -0.0878   12.6854    0.2401 H   0  0  0  0  0  0  0  0  0  0  0  0
   -2.2421   12.5165   -0.8737 H   0  0  0  0  0  0  0  0  0  0  0  0
   -1.5001   13.1200   -2.3943 H   0  0  0  0  0  0  0  0  0  0  0  0
   -2.4195   11.5768   -2.3943 H   0  0  0  0  0  0  0  0  0  0  0  0
  1  2  1  0
  2  3  1  0
  3  4  1  0
  4  5  1  0
  5  6  1  0
  6  7  1  0
  7  8  1  0
  7  9  1  0
  2 10  1  0
 10 11  1  0
 11 12  1  0
 12 13  1  0
 13 14  1  1
 13 15  1  0
 15 16  1  0
 16 17  1  0
 17 18  2  0
 18 19  1  0
 19 20  1  0
 20 21  1  0
 21 22  1  0
 22 23  1  0
 22 24  1  0
 24 25  1  0
 24 26  1  0
 19 27  1  0
 27 28  1  6
 27 29  1  0
 29 30  1  0
 30 31  1  0
 31 32  1  6
  7  5  1  0
 31 10  1  0
 31 13  1  0
 27 15  1  0
 24 18  1  0
  1 33  1  0
  1 34  1  0
  1 35  1  0
  2 36  1  6
  3 37  1  0
  3 38  1  0
  4 39  1  0
  4 40  1  0
  5 41  1  1
  8 42  1  0
  8 43  1  0
  8 44  1  0
  9 45  1  0
  9 46  1  0
  9 47  1  0
 10 48  1  1
 11 49  1  0
 11 50  1  0
 12 51  1  0
 12 52  1  0
 14 53  1  0
 14 54  1  0
 14 55  1  0
 15 56  1  6
 16 57  1  0
 16 58  1  0
 17 59  1  0
 19 60  1  1
 20 61  1  0
 20 62  1  0
 21 63  1  0
 21 64  1  0
 22 65  1  1
 23 66  1  0
 25 67  1  0
 25 68  1  0
 25 69  1  0
 26 70  1  0
 26 71  1  0
 26 72  1  0
 28 73  1  0
 28 74  1  0
 28 75  1  0
 29 76  1  0
 29 77  1  0
 30 78  1  0
 30 79  1  0
 32 80  1  0
 32 81  1  0
 32 82  1  0
M  END
>  <meeko>  (16) 
{"is_sidechain": [false], "intermolecular_energy": 2.731, "internal_energy": -0.839}

$$$$
EPH_relaxed_0001_pdb2pqr_Repair_286_r2_0001_out
     RDKit          3D

 82 86  0  0  0  0  0  0  0  0999 V2000
   -5.1240    5.8930   -1.9040 C   0  0  0  0  0  0  0  0  0  0  0  0
   -5.4660    7.3850   -1.8710 C   0  0  2  0  0  0  0  0  0  0  0  0
   -5.2580    7.9970   -0.4710 C   0  0  0  0  0  0  0  0  0  0  0  0
   -4.2220    9.1240   -0.4390 C   0  0  0  0  0  0  0  0  0  0  0  0
   -2.8410    8.6150   -0.7190 C   0  0  2  0  0  0  0  0  0  0  0  0
   -1.8540    8.9990    0.2480 O   0  0  0  0  0  0  0  0  0  0  0  0
   -1.6750    9.5160   -1.0810 C   0  0  0  0  0  0  0  0  0  0  0  0
   -1.8380   11.0000   -1.1830 C   0  0  0  0  0  0  0  0  0  0  0  0
   -0.5090    8.9210   -1.8070 C   0  0  0  0  0  0  0  0  0  0  0  0
   -6.9050    7.5990   -2.3250 C   0  0  1  0  0  0  0  0  0  0  0  0
   -7.2200    6.8870   -3.6670 C   0  0  0  0  0  0  0  0  0  0  0  0
   -8.6920    6.4080   -3.5840 C   0  0  0  0  0  0  0  0  0  0  0  0
   -9.2720    7.1400   -2.3520 C   0  0  1  0  0  0  0  0  0  0  0  0
   -9.6340    8.5680   -2.8670 C   0  0  0  0  0  0  0  0  0  0  0  0
  -10.4890    6.4540   -1.6500 C   0  0  2  0  0  0  0  0  0  0  0  0
  -11.7500    6.3130   -2.5200 C   0  0  0  0  0  0  0  0  0  0  0  0
  -12.7090    7.4540   -2.4440 C   0  0  0  0  0  0  0  0  0  0  0  0
  -12.7090    8.4140   -1.5000 C   0  0  0  0  0  0  0  0  0  0  0  0
  -11.7340    8.3550   -0.3170 C   0  0  1  0  0  0  0  0  0  0  0  0
  -12.5010    8.6450    1.0000 C   0  0  0  0  0  0  0  0  0  0  0  0
  -13.2770    9.9570    0.9490 C   0  0  0  0  0  0  0  0  0  0  0  0
  -14.2760    9.9550   -0.2050 C   0  0  2  0  0  0  0  0  0  0  0  0
  -15.2870    8.9780    0.0630 O   0  0  0  0  0  0  0  0  0  0  0  0
  -13.6200    9.6630   -1.5840 C   0  0  0  0  0  0  0  0  0  0  0  0
  -12.7510   10.8710   -2.0120 C   0  0  0  0  0  0  0  0  0  0  0  0
  -14.7540    9.5490   -2.6380 C   0  0  0  0  0  0  0  0  0  0  0  0
  -10.8340    7.0480   -0.2240 C   0  0  1  0  0  0  0  0  0  0  0  0
  -11.5970    5.9310    0.5510 C   0  0  0  0  0  0  0  0  0  0  0  0
   -9.5440    7.3710    0.6180 C   0  0  0  0  0  0  0  0  0  0  0  0
   -8.3340    7.9350   -0.1520 C   0  0  0  0  0  0  0  0  0  0  0  0
   -8.0290    7.0870   -1.3900 C   0  0  2  0  0  0  0  0  0  0  0  0
   -7.6400    5.6500   -0.9020 C   0  0  0  0  0  0  0  0  0  0  0  0
   -5.0371    5.5139   -0.8751 H   0  0  0  0  0  0  0  0  0  0  0  0
   -5.9200    5.3459   -2.4303 H   0  0  0  0  0  0  0  0  0  0  0  0
   -4.1692    5.7472   -2.4303 H   0  0  0  0  0  0  0  0  0  0  0  0
   -4.7792    7.8974   -2.5607 H   0  0  0  0  0  0  0  0  0  0  0  0
   -6.2202    8.3999   -0.1218 H   0  0  0  0  0  0  0  0  0  0  0  0
   -4.8788    7.1936    0.1776 H   0  0  0  0  0  0  0  0  0  0  0  0
   -4.4868    9.8734   -1.1995 H   0  0  0  0  0  0  0  0  0  0  0  0
   -4.2270    9.5660    0.5683 H   0  0  0  0  0  0  0  0  0  0  0  0
   -3.2454    7.7068   -1.1897 H   0  0  0  0  0  0  0  0  0  0  0  0
   -1.8857   11.4339   -0.1733 H   0  0  0  0  0  0  0  0  0  0  0  0
   -0.9813   11.4266   -1.7253 H   0  0  0  0  0  0  0  0  0  0  0  0
   -2.7669   11.2304   -1.7253 H   0  0  0  0  0  0  0  0  0  0  0  0
    0.2246    8.5466   -1.0779 H   0  0  0  0  0  0  0  0  0  0  0  0
   -0.8556    8.0896   -2.4383 H   0  0  0  0  0  0  0  0  0  0  0  0
   -0.0392    9.6896   -2.4383 H   0  0  0  0  0  0  0  0  0  0  0  0
   -6.9234    8.6980   -2.3681 H   0  0  0  0  0  0  0  0  0  0  0  0
   -7.0964    7.5878   -4.5058 H   0  0  0  0  0  0  0  0  0  0  0  0
   -6.5379    6.0405   -3.8347 H   0  0  0  0  0  0  0  0  0  0  0  0
   -9.2425    6.6853   -4.4951 H   0  0  0  0  0  0  0  0  0  0  0  0
   -8.7702    5.3145   -3.4943 H   0  0  0  0  0  0  0  0  0  0  0  0
   -9.8032    9.2353   -2.0090 H   0  0  0  0  0  0  0  0  0  0  0  0
   -8.8064    8.9583   -3.4775 H   0  0  0  0  0  0  0  0  0  0  0  0
  -10.5476    8.5169   -3.4775 H   0  0  0  0  0  0  0  0  0  0  0  0
  -10.1215    5.4298   -1.4890 H   0  0  0  0  0  0  0  0  0  0  0  0
  -11.4302    6.2073   -3.5671 H   0  0  0  0  0  0  0  0  0  0  0  0
  -12.2897    5.4362   -2.1329 H   0  0  0  0  0  0  0  0  0  0  0  0
  -13.4810    7.5159   -3.2252 H   0  0  0  0  0  0  0  0  0  0  0  0
  -10.9889    9.1439   -0.4971 H   0  0  0  0  0  0  0  0  0  0  0  0
  -13.2092    7.8236    1.1837 H   0  0  0  0  0  0  0  0  0  0  0  0
  -11.7583    8.7279    1.8072 H   0  0  0  0  0  0  0  0  0  0  0  0
  -13.8208   10.0907    1.8958 H   0  0  0  0  0  0  0  0  0  0  0  0
  -12.5644   10.7808    0.7953 H   0  0  0  0  0  0  0  0  0  0  0  0
  -14.7062   10.9653   -0.2705 H   0  0  0  0  0  0  0  0  0  0  0  0
  -16.0270    9.1460   -0.5440 H   0  0  0  0  0  0  0  0  0  0  0  0
  -12.3778   11.3898   -1.1167 H   0  0  0  0  0  0  0  0  0  0  0  0
  -11.8998   10.5162   -2.6117 H   0  0  0  0  0  0  0  0  0  0  0  0
  -13.3580   11.5652   -2.6117 H   0  0  0  0  0  0  0  0  0  0  0  0
  -15.7225    9.4516   -2.1255 H   0  0  0  0  0  0  0  0  0  0  0  0
  -14.7614   10.4509   -3.2677 H   0  0  0  0  0  0  0  0  0  0  0  0
  -14.5817    8.6636   -3.2677 H   0  0  0  0  0  0  0  0  0  0  0  0
  -11.4857    6.0940    1.6331 H   0  0  0  0  0  0  0  0  0  0  0  0
  -12.6635    5.9620    0.2833 H   0  0  0  0  0  0  0  0  0  0  0  0
  -11.1802    4.9488    0.2833 H   0  0  0  0  0  0  0  0  0  0  0  0
   -9.8234    8.1084    1.3849 H   0  0  0  0  0  0  0  0  0  0  0  0
   -9.2073    6.4007    1.0119 H   0  0  0  0  0  0  0  0  0  0  0  0
   -8.5564    8.9651   -0.4672 H   0  0  0  0  0  0  0  0  0  0  0  0
   -7.4565    7.9164    0.5110 H   0  0  0  0  0  0  0  0  0  0  0  0
   -7.6334    5.6255    0.1977 H   0  0  0  0  0  0  0  0  0  0  0  0
   -8.3737    4.9231   -1.2805 H   0  0  0  0  0  0  0  0  0  0  0  0
   -6.6398    5.3925   -1.2805 H   0  0  0  0  0  0  0  0  0  0  0  0
  1  2  1  0
  2  3  1  0
  3  4  1  0
  4  5  1  0
  5  6  1  0
  6  7  1  0
  7  8  1  0
  7  9  1  0
  2 10  1  0
 10 11  1  0
 11 12  1  0
 12 13  1  0
 13 14  1  6
 13 15  1  0
 15 16  1  0
 16 17  1  0
 17 18  2  0
 18 19  1  0
 19 20  1  0
 20 21  1  0
 21 22  1  0
 22 23  1  0
 22 24  1  0
 24 25  1  0
 24 26  1  0
 19 27  1  0
 27 28  1  1
 27 29  1  0
 29 30  1  0
 30 31  1  0
 31 32  1  1
  7  5  1  0
 31 10  1  0
 31 13  1  0
 27 15  1  0
 24 18  1  0
  1 33  1  0
  1 34  1  0
  1 35  1  0
  2 36  1  6
  3 37  1  0
  3 38  1  0
  4 39  1  0
  4 40  1  0
  5 41  1  6
  8 42  1  0
  8 43  1  0
  8 44  1  0
  9 45  1  0
  9 46  1  0
  9 47  1  0
 10 48  1  6
 11 49  1  0
 11 50  1  0
 12 51  1  0
 12 52  1  0
 14 53  1  0
 14 54  1  0
 14 55  1  0
 15 56  1  1
 16 57  1  0
 16 58  1  0
 17 59  1  0
 19 60  1  6
 20 61  1  0
 20 62  1  0
 21 63  1  0
 21 64  1  0
 22 65  1  6
 23 66  1  0
 25 67  1  0
 25 68  1  0
 25 69  1  0
 26 70  1  0
 26 71  1  0
 26 72  1  0
 28 73  1  0
 28 74  1  0
 28 75  1  0
 29 76  1  0
 29 77  1  0
 30 78  1  0
 30 79  1  0
 32 80  1  0
 32 81  1  0
 32 82  1  0
M  END
>  <meeko>  (17) 
{"is_sidechain": [false], "intermolecular_energy": 2.731, "internal_energy": -0.839}

$$$$
EPH_relaxed_0001_pdb2pqr_Repair_286_r2_0001_out
     RDKit          3D

 82 86  0  0  0  0  0  0  0  0999 V2000
    3.1050   16.5960    0.1590 C   0  0  0  0  0  0  0  0  0  0  0  0
    2.1670   17.0410   -0.9670 C   0  0  2  0  0  0  0  0  0  0  0  0
    1.2840   18.2340   -0.5500 C   0  0  0  0  0  0  0  0  0  0  0  0
    0.4180   18.7850   -1.6860 C   0  0  0  0  0  0  0  0  0  0  0  0
    1.2500   19.2560   -2.8400 C   0  0  2  0  0  0  0  0  0  0  0  0
    0.5980   20.1950   -3.7050 O   0  0  0  0  0  0  0  0  0  0  0  0
    0.9360   18.9260   -4.2870 C   0  0  0  0  0  0  0  0  0  0  0  0
   -0.2490   18.0900   -4.6580 C   0  0  0  0  0  0  0  0  0  0  0  0
    2.0420   19.0000   -5.2940 C   0  0  0  0  0  0  0  0  0  0  0  0
    1.2910   15.8730   -1.4060 C   0  0  1  0  0  0  0  0  0  0  0  0
    0.5830   16.1340   -2.7620 C   0  0  0  0  0  0  0  0  0  0  0  0
    0.5100   14.7710   -3.4980 C   0  0  0  0  0  0  0  0  0  0  0  0
    0.8710   13.7250   -2.4170 C   0  0  1  0  0  0  0  0  0  0  0  0
   -0.4500   13.5050   -1.6150 C   0  0  0  0  0  0  0  0  0  0  0  0
    1.4630   12.3740   -2.9350 C   0  0  2  0  0  0  0  0  0  0  0  0
    0.5230   11.5500   -3.8310 C   0  0  0  0  0  0  0  0  0  0  0  0
   -0.3460   10.5700   -3.1140 C   0  0  0  0  0  0  0  0  0  0  0  0
   -0.1750   10.1550   -1.8450 C   0  0  0  0  0  0  0  0  0  0  0  0
    1.0410   10.6080   -1.0260 C   0  0  1  0  0  0  0  0  0  0  0  0
    1.6690    9.3830   -0.3120 C   0  0  0  0  0  0  0  0  0  0  0  0
    0.6550    8.6110    0.5270 C   0  0  0  0  0  0  0  0  0  0  0  0
   -0.5090    8.1280   -0.3340 C   0  0  2  0  0  0  0  0  0  0  0  0
   -0.0240    7.1490   -1.2580 O   0  0  0  0  0  0  0  0  0  0  0  0
   -1.2150    9.2750   -1.1100 C   0  0  0  0  0  0  0  0  0  0  0  0
   -1.9960   10.1710   -0.1180 C   0  0  0  0  0  0  0  0  0  0  0  0
   -2.2760    8.6350   -2.0460 C   0  0  0  0  0  0  0  0  0  0  0  0
    2.1180   11.4780   -1.8060 C   0  0  1  0  0  0  0  0  0  0  0  0
    3.1430   10.5430   -2.5180 C   0  0  0  0  0  0  0  0  0  0  0  0
    2.9400   12.3300   -0.7680 C   0  0  0  0  0  0  0  0  0  0  0  0
    2.3640   13.7070   -0.3880 C   0  0  0  0  0  0  0  0  0  0  0  0
    1.9880   14.5090   -1.6380 C   0  0  2  0  0  0  0  0  0  0  0  0
    3.3010   14.7650   -2.4540 C   0  0  0  0  0  0  0  0  0  0  0  0
    2.6407   16.8163    1.1316 H   0  0  0  0  0  0  0  0  0  0  0  0
    3.2890   15.5146    0.0771 H   0  0  0  0  0  0  0  0  0  0  0  0
    4.0590   17.1375    0.0771 H   0  0  0  0  0  0  0  0  0  0  0  0
    2.7938   17.3724   -1.8080 H   0  0  0  0  0  0  0  0  0  0  0  0
    0.6213   17.9075    0.2650 H   0  0  0  0  0  0  0  0  0  0  0  0
    1.9619   19.0433   -0.2408 H   0  0  0  0  0  0  0  0  0  0  0  0
   -0.2588   17.9913   -2.0352 H   0  0  0  0  0  0  0  0  0  0  0  0
   -0.1485   19.6447   -1.2988 H   0  0  0  0  0  0  0  0  0  0  0  0
    2.1703   19.1628   -2.2447 H   0  0  0  0  0  0  0  0  0  0  0  0
   -0.7493   17.7371   -3.7441 H   0  0  0  0  0  0  0  0  0  0  0  0
   -0.9520   18.6932   -5.2512 H   0  0  0  0  0  0  0  0  0  0  0  0
    0.0835   17.2254   -5.2512 H   0  0  0  0  0  0  0  0  0  0  0  0
    3.0086   19.0647   -4.7729 H   0  0  0  0  0  0  0  0  0  0  0  0
    2.0249   18.0987   -5.9244 H   0  0  0  0  0  0  0  0  0  0  0  0
    1.9049   19.8910   -5.9244 H   0  0  0  0  0  0  0  0  0  0  0  0
    0.6197   15.8094   -0.5369 H   0  0  0  0  0  0  0  0  0  0  0  0
   -0.4301   16.5269   -2.5909 H   0  0  0  0  0  0  0  0  0  0  0  0
    1.1336   16.8762   -3.3587 H   0  0  0  0  0  0  0  0  0  0  0  0
   -0.5034   14.5935   -3.8873 H   0  0  0  0  0  0  0  0  0  0  0  0
    1.1870   14.7273   -4.3639 H   0  0  0  0  0  0  0  0  0  0  0  0
   -0.2347   13.5409   -0.5369 H   0  0  0  0  0  0  0  0  0  0  0  0
   -1.1706   14.2955   -1.8715 H   0  0  0  0  0  0  0  0  0  0  0  0
   -0.8756   12.5236   -1.8715 H   0  0  0  0  0  0  0  0  0  0  0  0
    2.2800   12.7108   -3.5900 H   0  0  0  0  0  0  0  0  0  0  0  0
   -0.1298   12.2500   -4.3731 H   0  0  0  0  0  0  0  0  0  0  0  0
    1.1739   10.9550   -4.4885 H   0  0  0  0  0  0  0  0  0  0  0  0
   -1.1981   10.1518   -3.6699 H   0  0  0  0  0  0  0  0  0  0  0  0
    0.6571   11.3192   -0.2798 H   0  0  0  0  0  0  0  0  0  0  0  0
    2.0849    8.7064   -1.0730 H   0  0  0  0  0  0  0  0  0  0  0  0
    2.4491    9.7566    0.3676 H   0  0  0  0  0  0  0  0  0  0  0  0
    1.1516    7.7413    0.9820 H   0  0  0  0  0  0  0  0  0  0  0  0
    0.2617    9.2801    1.3065 H   0  0  0  0  0  0  0  0  0  0  0  0
   -1.2624    7.6972    0.3419 H   0  0  0  0  0  0  0  0  0  0  0  0
    0.9140    7.3410   -1.4240 H   0  0  0  0  0  0  0  0  0  0  0  0
   -1.7443    9.8823    0.9132 H   0  0  0  0  0  0  0  0  0  0  0  0
   -1.7222   11.2238   -0.2812 H   0  0  0  0  0  0  0  0  0  0  0  0
   -3.0763   10.0435   -0.2812 H   0  0  0  0  0  0  0  0  0  0  0  0
   -3.0618    8.1610   -1.4395 H   0  0  0  0  0  0  0  0  0  0  0  0
   -2.7228    9.4144   -2.6808 H   0  0  0  0  0  0  0  0  0  0  0  0
   -1.7950    7.8763   -2.6808 H   0  0  0  0  0  0  0  0  0  0  0  0
    3.7338   10.0040   -1.7627 H   0  0  0  0  0  0  0  0  0  0  0  0
    2.6038    9.8192   -3.1468 H   0  0  0  0  0  0  0  0  0  0  0  0
    3.8144   11.1463   -3.1468 H   0  0  0  0  0  0  0  0  0  0  0  0
    3.0244   11.7383    0.1555 H   0  0  0  0  0  0  0  0  0  0  0  0
    3.8965   12.5460   -1.2665 H   0  0  0  0  0  0  0  0  0  0  0  0
    1.4659   13.5629    0.2306 H   0  0  0  0  0  0  0  0  0  0  0  0
    3.1303   14.2657    0.1693 H   0  0  0  0  0  0  0  0  0  0  0  0
    4.1383   14.9283   -1.7596 H   0  0  0  0  0  0  0  0  0  0  0  0
    3.5151   13.8917   -3.0876 H   0  0  0  0  0  0  0  0  0  0  0  0
    3.1713   15.6548   -3.0876 H   0  0  0  0  0  0  0  0  0  0  0  0
  1  2  1  0
  2  3  1  0
  3  4  1  0
  4  5  1  0
  5  6  1  0
  6  7  1  0
  7  8  1  0
  7  9  1  0
  2 10  1  0
 10 11  1  0
 11 12  1  0
 12 13  1  0
 13 14  1  1
 13 15  1  0
 15 16  1  0
 16 17  1  0
 17 18  2  0
 18 19  1  0
 19 20  1  0
 20 21  1  0
 21 22  1  0
 22 23  1  0
 22 24  1  0
 24 25  1  0
 24 26  1  0
 19 27  1  0
 27 28  1  6
 27 29  1  0
 29 30  1  0
 30 31  1  0
 31 32  1  6
  7  5  1  0
 31 10  1  0
 31 13  1  0
 27 15  1  0
 24 18  1  0
  1 33  1  0
  1 34  1  0
  1 35  1  0
  2 36  1  6
  3 37  1  0
  3 38  1  0
  4 39  1  0
  4 40  1  0
  5 41  1  1
  8 42  1  0
  8 43  1  0
  8 44  1  0
  9 45  1  0
  9 46  1  0
  9 47  1  0
 10 48  1  1
 11 49  1  0
 11 50  1  0
 12 51  1  0
 12 52  1  0
 14 53  1  0
 14 54  1  0
 14 55  1  0
 15 56  1  6
 16 57  1  0
 16 58  1  0
 17 59  1  0
 19 60  1  1
 20 61  1  0
 20 62  1  0
 21 63  1  0
 21 64  1  0
 22 65  1  1
 23 66  1  0
 25 67  1  0
 25 68  1  0
 25 69  1  0
 26 70  1  0
 26 71  1  0
 26 72  1  0
 28 73  1  0
 28 74  1  0
 28 75  1  0
 29 76  1  0
 29 77  1  0
 30 78  1  0
 30 79  1  0
 32 80  1  0
 32 81  1  0
 32 82  1  0
M  END
>  <meeko>  (18) 
{"is_sidechain": [false], "intermolecular_energy": 2.731, "internal_energy": -0.839}

$$$$
