EPH_relaxed_0001_pdb2pqr_Repair_157_r2_0001_out
     RDKit          3D

 82 86  0  0  0  0  0  0  0  0999 V2000
   -1.0310    8.8240   -1.8830 C   0  0  0  0  0  0  0  0  0  0  0  0
   -1.4920    9.1610   -0.4620 C   0  0  2  0  0  0  0  0  0  0  0  0
   -3.0280    9.1910   -0.3420 C   0  0  0  0  0  0  0  0  0  0  0  0
   -3.7370    8.1930   -1.2620 C   0  0  0  0  0  0  0  0  0  0  0  0
   -5.1880    8.0500   -0.9110 C   0  0  2  0  0  0  0  0  0  0  0  0
   -5.6110    6.7050   -0.6530 O   0  0  0  0  0  0  0  0  0  0  0  0
   -6.1970    7.3450   -1.7990 C   0  0  0  0  0  0  0  0  0  0  0  0
   -5.7960    6.7380   -3.1060 C   0  0  0  0  0  0  0  0  0  0  0  0
   -7.6480    7.6710   -1.6300 C   0  0  0  0  0  0  0  0  0  0  0  0
   -0.9090   10.5030   -0.0330 C   0  0  1  0  0  0  0  0  0  0  0  0
    0.0170   10.3830    1.2070 C   0  0  0  0  0  0  0  0  0  0  0  0
    1.1490   11.4250    1.0220 C   0  0  0  0  0  0  0  0  0  0  0  0
    0.6620   12.3290   -0.1350 C   0  0  1  0  0  0  0  0  0  0  0  0
   -0.3270   13.3360    0.5320 C   0  0  0  0  0  0  0  0  0  0  0  0
    1.7740   13.0660   -0.9500 C   0  0  2  0  0  0  0  0  0  0  0  0
    2.6220   14.0640   -0.1430 C   0  0  0  0  0  0  0  0  0  0  0  0
    2.1060   15.4650   -0.1160 C   0  0  0  0  0  0  0  0  0  0  0  0
    1.1700   15.9690   -0.9420 C   0  0  0  0  0  0  0  0  0  0  0  0
    0.5990   15.1300   -2.0920 C   0  0  1  0  0  0  0  0  0  0  0  0
    0.5760   15.9790   -3.3900 C   0  0  0  0  0  0  0  0  0  0  0  0
   -0.1630   17.3020   -3.2110 C   0  0  0  0  0  0  0  0  0  0  0  0
    0.4700   18.1330   -2.0980 C   0  0  2  0  0  0  0  0  0  0  0  0
    1.7800   18.5340   -2.5100 O   0  0  0  0  0  0  0  0  0  0  0  0
    0.5570   17.3770   -0.7420 C   0  0  0  0  0  0  0  0  0  0  0  0
   -0.8640   17.2090   -0.1480 C   0  0  0  0  0  0  0  0  0  0  0  0
    1.3410   18.2730    0.2540 C   0  0  0  0  0  0  0  0  0  0  0  0
    1.2670   13.7040   -2.3070 C   0  0  1  0  0  0  0  0  0  0  0  0
    2.5160   13.8350   -3.2310 C   0  0  0  0  0  0  0  0  0  0  0  0
    0.2510   12.7690   -3.0650 C   0  0  0  0  0  0  0  0  0  0  0  0
   -0.7440   11.9760   -2.1960 C   0  0  0  0  0  0  0  0  0  0  0  0
   -0.0200   11.2530   -1.0560 C   0  0  2  0  0  0  0  0  0  0  0  0
    0.9660   10.2170   -1.6960 C   0  0  0  0  0  0  0  0  0  0  0  0
   -0.1438    8.1754   -1.8365 H   0  0  0  0  0  0  0  0  0  0  0  0
   -1.8391    8.3022   -2.4166 H   0  0  0  0  0  0  0  0  0  0  0  0
   -0.7790    9.7523   -2.4166 H   0  0  0  0  0  0  0  0  0  0  0  0
   -1.1252    8.3657    0.2035 H   0  0  0  0  0  0  0  0  0  0  0  0
   -3.2997    8.9580    0.6981 H   0  0  0  0  0  0  0  0  0  0  0  0
   -3.3546   10.1965   -0.6460 H   0  0  0  0  0  0  0  0  0  0  0  0
   -3.6544    8.5449   -2.3009 H   0  0  0  0  0  0  0  0  0  0  0  0
   -3.2559    7.2114   -1.1392 H   0  0  0  0  0  0  0  0  0  0  0  0
   -5.1938    9.0382   -0.4279 H   0  0  0  0  0  0  0  0  0  0  0  0
   -5.1982    5.8331   -2.9220 H   0  0  0  0  0  0  0  0  0  0  0  0
   -6.6968    6.4722   -3.6786 H   0  0  0  0  0  0  0  0  0  0  0  0
   -5.1981    7.4623   -3.6786 H   0  0  0  0  0  0  0  0  0  0  0  0
   -7.8892    7.7252   -0.5581 H   0  0  0  0  0  0  0  0  0  0  0  0
   -7.8637    8.6400   -2.1038 H   0  0  0  0  0  0  0  0  0  0  0  0
   -8.2575    6.8874   -2.1038 H   0  0  0  0  0  0  0  0  0  0  0  0
   -1.8408   11.0626    0.1360 H   0  0  0  0  0  0  0  0  0  0  0  0
   -0.5495   10.5981    2.1251 H   0  0  0  0  0  0  0  0  0  0  0  0
    0.4269    9.3662    1.2970 H   0  0  0  0  0  0  0  0  0  0  0  0
    1.2898   12.0127    1.9411 H   0  0  0  0  0  0  0  0  0  0  0  0
    2.1184   10.9534    0.8032 H   0  0  0  0  0  0  0  0  0  0  0  0
   -0.2488   13.2564    1.6263 H   0  0  0  0  0  0  0  0  0  0  0  0
   -0.0738   14.3599    0.2198 H   0  0  0  0  0  0  0  0  0  0  0  0
   -1.3553   13.1013    0.2198 H   0  0  0  0  0  0  0  0  0  0  0  0
    2.4543   12.2440   -1.2172 H   0  0  0  0  0  0  0  0  0  0  0  0
    2.6770   13.7022    0.8943 H   0  0  0  0  0  0  0  0  0  0  0  0
    3.5989   14.1096   -0.6465 H   0  0  0  0  0  0  0  0  0  0  0  0
    2.5259   16.1421    0.6425 H   0  0  0  0  0  0  0  0  0  0  0  0
   -0.4286   14.8696   -1.7983 H   0  0  0  0  0  0  0  0  0  0  0  0
    1.6125   16.1920   -3.6904 H   0  0  0  0  0  0  0  0  0  0  0  0
    0.0426   15.4000   -4.1582 H   0  0  0  0  0  0  0  0  0  0  0  0
   -0.1200   17.8689   -4.1527 H   0  0  0  0  0  0  0  0  0  0  0  0
   -1.2071   17.0875   -2.9392 H   0  0  0  0  0  0  0  0  0  0  0  0
   -0.1779   19.0058   -1.9292 H   0  0  0  0  0  0  0  0  0  0  0  0
    2.0320   19.3080   -1.9780 H   0  0  0  0  0  0  0  0  0  0  0  0
   -0.8054   17.2159    0.9504 H   0  0  0  0  0  0  0  0  0  0  0  0
   -1.5032   18.0378   -0.4863 H   0  0  0  0  0  0  0  0  0  0  0  0
   -1.2923   16.2540   -0.4863 H   0  0  0  0  0  0  0  0  0  0  0  0
    1.0880   17.9838    1.2847 H   0  0  0  0  0  0  0  0  0  0  0  0
    2.4212   18.1436    0.0915 H   0  0  0  0  0  0  0  0  0  0  0  0
    1.0694   19.3265    0.0915 H   0  0  0  0  0  0  0  0  0  0  0  0
    3.4210   13.9299   -2.6129 H   0  0  0  0  0  0  0  0  0  0  0  0
    2.5978   12.9405   -3.8660 H   0  0  0  0  0  0  0  0  0  0  0  0
    2.4104   14.7270   -3.8660 H   0  0  0  0  0  0  0  0  0  0  0  0
   -0.3346   13.3998   -3.7500 H   0  0  0  0  0  0  0  0  0  0  0  0
    0.8731   12.0076   -3.5581 H   0  0  0  0  0  0  0  0  0  0  0  0
   -1.4829   12.6706   -1.7699 H   0  0  0  0  0  0  0  0  0  0  0  0
   -1.2413   11.2254   -2.8279 H   0  0  0  0  0  0  0  0  0  0  0  0
    1.4888    9.6677   -0.8991 H   0  0  0  0  0  0  0  0  0  0  0  0
    0.4001    9.5088   -2.3191 H   0  0  0  0  0  0  0  0  0  0  0  0
    1.7013   10.7472   -2.3191 H   0  0  0  0  0  0  0  0  0  0  0  0
  1  2  1  0
  2  3  1  0
  3  4  1  0
  4  5  1  0
  5  6  1  0
  6  7  1  0
  7  8  1  0
  7  9  1  0
  2 10  1  0
 10 11  1  0
 11 12  1  0
 12 13  1  0
 13 14  1  1
 13 15  1  0
 15 16  1  0
 16 17  1  0
 17 18  2  0
 18 19  1  0
 19 20  1  0
 20 21  1  0
 21 22  1  0
 22 23  1  0
 22 24  1  0
 24 25  1  0
 24 26  1  0
 19 27  1  0
 27 28  1  6
 27 29  1  0
 29 30  1  0
 30 31  1  0
 31 32  1  6
  7  5  1  0
 31 10  1  0
 31 13  1  0
 27 15  1  0
 24 18  1  0
  1 33  1  0
  1 34  1  0
  1 35  1  0
  2 36  1  1
  3 37  1  0
  3 38  1  0
  4 39  1  0
  4 40  1  0
  5 41  1  1
  8 42  1  0
  8 43  1  0
  8 44  1  0
  9 45  1  0
  9 46  1  0
  9 47  1  0
 10 48  1  1
 11 49  1  0
 11 50  1  0
 12 51  1  0
 12 52  1  0
 14 53  1  0
 14 54  1  0
 14 55  1  0
 15 56  1  6
 16 57  1  0
 16 58  1  0
 17 59  1  0
 19 60  1  1
 20 61  1  0
 20 62  1  0
 21 63  1  0
 21 64  1  0
 22 65  1  1
 23 66  1  0
 25 67  1  0
 25 68  1  0
 25 69  1  0
 26 70  1  0
 26 71  1  0
 26 72  1  0
 28 73  1  0
 28 74  1  0
 28 75  1  0
 29 76  1  0
 29 77  1  0
 30 78  1  0
 30 79  1  0
 32 80  1  0
 32 81  1  0
 32 82  1  0
M  END
>  <meeko>  (1) 
{"is_sidechain": [false], "intermolecular_energy": 2.731, "internal_energy": -0.839}

$$$$
EPH_relaxed_0001_pdb2pqr_Repair_157_r2_0001_out
     RDKit          3D

 82 86  0  0  0  0  0  0  0  0999 V2000
    1.5310   16.9940   -0.2750 C   0  0  0  0  0  0  0  0  0  0  0  0
    1.2190   17.0030   -1.7740 C   0  0  2  0  0  0  0  0  0  0  0  0
    0.3350   18.2010   -2.1760 C   0  0  0  0  0  0  0  0  0  0  0  0
    0.6020   19.4650   -1.3560 C   0  0  0  0  0  0  0  0  0  0  0  0
   -0.6690   20.0740   -0.8460 C   0  0  2  0  0  0  0  0  0  0  0  0
   -0.7450   20.1940    0.5810 O   0  0  0  0  0  0  0  0  0  0  0  0
   -1.6960   19.3080   -0.0320 C   0  0  0  0  0  0  0  0  0  0  0  0
   -1.4970   17.8660    0.3160 C   0  0  0  0  0  0  0  0  0  0  0  0
   -3.1030   19.8160    0.0040 C   0  0  0  0  0  0  0  0  0  0  0  0
    0.5380   15.6980   -2.1700 C   0  0  1  0  0  0  0  0  0  0  0  0
    0.0370   15.7070   -3.6390 C   0  0  0  0  0  0  0  0  0  0  0  0
    0.2120   14.2650   -4.1800 C   0  0  0  0  0  0  0  0  0  0  0  0
    0.4900   13.4070   -2.9230 C   0  0  1  0  0  0  0  0  0  0  0  0
   -0.9170   13.1390   -2.3020 C   0  0  0  0  0  0  0  0  0  0  0  0
    1.2820   12.0790   -3.1540 C   0  0  2  0  0  0  0  0  0  0  0  0
    0.5800   11.0490   -4.0560 C   0  0  0  0  0  0  0  0  0  0  0  0
   -0.2980   10.0730   -3.3450 C   0  0  0  0  0  0  0  0  0  0  0  0
   -0.2960    9.8400   -2.0190 C   0  0  0  0  0  0  0  0  0  0  0  0
    0.7230   10.5260   -1.1010 C   0  0  1  0  0  0  0  0  0  0  0  0
    1.3400    9.4780   -0.1370 C   0  0  0  0  0  0  0  0  0  0  0  0
    0.2800    8.7040    0.6410 C   0  0  0  0  0  0  0  0  0  0  0  0
   -0.6790    7.9890   -0.3060 C   0  0  2  0  0  0  0  0  0  0  0  0
    0.0380    6.9650   -1.0020 O   0  0  0  0  0  0  0  0  0  0  0  0
   -1.3540    8.9430   -1.3300 C   0  0  0  0  0  0  0  0  0  0  0  0
   -2.3660    9.8600   -0.5990 C   0  0  0  0  0  0  0  0  0  0  0  0
   -2.1860    8.0770   -2.3140 C   0  0  0  0  0  0  0  0  0  0  0  0
    1.8260   11.4100   -1.8270 C   0  0  1  0  0  0  0  0  0  0  0  0
    3.0360   10.5180   -2.2420 C   0  0  0  0  0  0  0  0  0  0  0  0
    2.3870   12.4720   -0.8080 C   0  0  0  0  0  0  0  0  0  0  0  0
    1.6300   13.8110   -0.7130 C   0  0  0  0  0  0  0  0  0  0  0  0
    1.3880   14.4040   -2.1040 C   0  0  2  0  0  0  0  0  0  0  0  0
    2.7860   14.7050   -2.7450 C   0  0  0  0  0  0  0  0  0  0  0  0
    0.5908   17.0211    0.2954 H   0  0  0  0  0  0  0  0  0  0  0  0
    2.0873   16.0794   -0.0217 H   0  0  0  0  0  0  0  0  0  0  0  0
    2.1391   17.8750   -0.0217 H   0  0  0  0  0  0  0  0  0  0  0  0
    2.1741   17.1026   -2.3106 H   0  0  0  0  0  0  0  0  0  0  0  0
    0.5203   18.4291   -3.2360 H   0  0  0  0  0  0  0  0  0  0  0  0
   -0.7083   17.9088   -1.9858 H   0  0  0  0  0  0  0  0  0  0  0  0
    1.2418   19.2057   -0.4996 H   0  0  0  0  0  0  0  0  0  0  0  0
    1.0960   20.1994   -2.0092 H   0  0  0  0  0  0  0  0  0  0  0  0
   -0.7585   20.6994   -1.7465 H   0  0  0  0  0  0  0  0  0  0  0  0
   -1.4812   17.7516    1.4099 H   0  0  0  0  0  0  0  0  0  0  0  0
   -2.3215   17.2705   -0.1031 H   0  0  0  0  0  0  0  0  0  0  0  0
   -0.5421   17.5161   -0.1031 H   0  0  0  0  0  0  0  0  0  0  0  0
   -3.4243   19.9320    1.0496 H   0  0  0  0  0  0  0  0  0  0  0  0
   -3.1545   20.7895   -0.5056 H   0  0  0  0  0  0  0  0  0  0  0  0
   -3.7645   19.0999   -0.5056 H   0  0  0  0  0  0  0  0  0  0  0  0
   -0.2561   15.6663   -1.4095 H   0  0  0  0  0  0  0  0  0  0  0  0
   -1.0228   15.9995   -3.6760 H   0  0  0  0  0  0  0  0  0  0  0  0
    0.6047   16.4280   -4.2455 H   0  0  0  0  0  0  0  0  0  0  0  0
   -0.7040   13.9265   -4.6863 H   0  0  0  0  0  0  0  0  0  0  0  0
    1.0216   14.1932   -4.9212 H   0  0  0  0  0  0  0  0  0  0  0  0
   -0.8422   13.1532   -1.2046 H   0  0  0  0  0  0  0  0  0  0  0  0
   -1.6182   13.9197   -2.6319 H   0  0  0  0  0  0  0  0  0  0  0  0
   -1.2820   12.1552   -2.6319 H   0  0  0  0  0  0  0  0  0  0  0  0
    2.1595   12.4231   -3.7210 H   0  0  0  0  0  0  0  0  0  0  0  0
   -0.0390   11.5979   -4.7809 H   0  0  0  0  0  0  0  0  0  0  0  0
    1.3809   10.4556   -4.5212 H   0  0  0  0  0  0  0  0  0  0  0  0
   -1.0067    9.4952   -3.9565 H   0  0  0  0  0  0  0  0  0  0  0  0
    0.1580   11.2750   -0.5267 H   0  0  0  0  0  0  0  0  0  0  0  0
    1.9361    8.7652   -0.7257 H   0  0  0  0  0  0  0  0  0  0  0  0
    1.9608   10.0194    0.5921 H   0  0  0  0  0  0  0  0  0  0  0  0
    0.7756    7.9593    1.2811 H   0  0  0  0  0  0  0  0  0  0  0  0
   -0.2955    9.4149    1.2521 H   0  0  0  0  0  0  0  0  0  0  0  0
   -1.4881    7.5620    0.3047 H   0  0  0  0  0  0  0  0  0  0  0  0
   -0.2530    6.9800   -1.9300 H   0  0  0  0  0  0  0  0  0  0  0  0
   -2.2429    9.7484    0.4884 H   0  0  0  0  0  0  0  0  0  0  0  0
   -2.1838   10.9069   -0.8831 H   0  0  0  0  0  0  0  0  0  0  0  0
   -3.3900    9.5758   -0.8831 H   0  0  0  0  0  0  0  0  0  0  0  0
   -2.8379    7.3985   -1.7442 H   0  0  0  0  0  0  0  0  0  0  0  0
   -2.8025    8.7317   -2.9475 H   0  0  0  0  0  0  0  0  0  0  0  0
   -1.5071    7.4872   -2.9475 H   0  0  0  0  0  0  0  0  0  0  0  0
    3.5426   10.1445   -1.3399 H   0  0  0  0  0  0  0  0  0  0  0  0
    2.6765    9.6672   -2.8394 H   0  0  0  0  0  0  0  0  0  0  0  0
    3.7424   11.1131   -2.8394 H   0  0  0  0  0  0  0  0  0  0  0  0
    2.3767   12.0122    0.1913 H   0  0  0  0  0  0  0  0  0  0  0  0
    3.3869   12.7327   -1.1851 H   0  0  0  0  0  0  0  0  0  0  0  0
    0.6611   13.6424   -0.2202 H   0  0  0  0  0  0  0  0  0  0  0  0
    2.2399   14.5181   -0.1316 H   0  0  0  0  0  0  0  0  0  0  0  0
    3.5278   14.8647   -1.9486 H   0  0  0  0  0  0  0  0  0  0  0  0
    3.0948   13.8528   -3.3682 H   0  0  0  0  0  0  0  0  0  0  0  0
    2.7167   15.6088   -3.3682 H   0  0  0  0  0  0  0  0  0  0  0  0
  1  2  1  0
  2  3  1  0
  3  4  1  0
  4  5  1  0
  5  6  1  0
  6  7  1  0
  7  8  1  0
  7  9  1  0
  2 10  1  0
 10 11  1  0
 11 12  1  0
 12 13  1  0
 13 14  1  1
 13 15  1  0
 15 16  1  0
 16 17  1  0
 17 18  2  0
 18 19  1  0
 19 20  1  0
 20 21  1  0
 21 22  1  0
 22 23  1  0
 22 24  1  0
 24 25  1  0
 24 26  1  0
 19 27  1  0
 27 28  1  6
 27 29  1  0
 29 30  1  0
 30 31  1  0
 31 32  1  6
  7  5  1  0
 31 10  1  0
 31 13  1  0
 27 15  1  0
 24 18  1  0
  1 33  1  0
  1 34  1  0
  1 35  1  0
  2 36  1  6
  3 37  1  0
  3 38  1  0
  4 39  1  0
  4 40  1  0
  5 41  1  6
  8 42  1  0
  8 43  1  0
  8 44  1  0
  9 45  1  0
  9 46  1  0
  9 47  1  0
 10 48  1  1
 11 49  1  0
 11 50  1  0
 12 51  1  0
 12 52  1  0
 14 53  1  0
 14 54  1  0
 14 55  1  0
 15 56  1  6
 16 57  1  0
 16 58  1  0
 17 59  1  0
 19 60  1  1
 20 61  1  0
 20 62  1  0
 21 63  1  0
 21 64  1  0
 22 65  1  1
 23 66  1  0
 25 67  1  0
 25 68  1  0
 25 69  1  0
 26 70  1  0
 26 71  1  0
 26 72  1  0
 28 73  1  0
 28 74  1  0
 28 75  1  0
 29 76  1  0
 29 77  1  0
 30 78  1  0
 30 79  1  0
 32 80  1  0
 32 81  1  0
 32 82  1  0
M  END
>  <meeko>  (2) 
{"is_sidechain": [false], "intermolecular_energy": 2.731, "internal_energy": -0.839}

$$$$
EPH_relaxed_0001_pdb2pqr_Repair_157_r2_0001_out
     RDKit          3D

 82 86  0  0  0  0  0  0  0  0999 V2000
   -4.0530    7.1290   -3.0650 C   0  0  0  0  0  0  0  0  0  0  0  0
   -3.9050    7.3670   -1.5590 C   0  0  2  0  0  0  0  0  0  0  0  0
   -5.2620    7.3200   -0.8280 C   0  0  0  0  0  0  0  0  0  0  0  0
   -6.3360    6.5240   -1.5750 C   0  0  0  0  0  0  0  0  0  0  0  0
   -7.7140    7.0220   -1.2610 C   0  0  2  0  0  0  0  0  0  0  0  0
   -8.6810    5.9920   -1.0150 O   0  0  0  0  0  0  0  0  0  0  0  0
   -8.9080    6.8120   -2.1740 C   0  0  0  0  0  0  0  0  0  0  0  0
   -8.7780    6.0800   -3.4720 C   0  0  0  0  0  0  0  0  0  0  0  0
  -10.0810    7.7330   -2.0410 C   0  0  0  0  0  0  0  0  0  0  0  0
   -3.2260    8.7080   -1.3090 C   0  0  1  0  0  0  0  0  0  0  0  0
   -3.6740    9.3660    0.0230 C   0  0  0  0  0  0  0  0  0  0  0  0
   -2.4380   10.1090    0.5930 C   0  0  0  0  0  0  0  0  0  0  0  0
   -1.4250   10.1350   -0.5750 C   0  0  1  0  0  0  0  0  0  0  0  0
   -1.8820   11.3260   -1.4750 C   0  0  0  0  0  0  0  0  0  0  0  0
    0.0820   10.2560   -0.1800 C   0  0  2  0  0  0  0  0  0  0  0  0
    0.4620   11.5510    0.5590 C   0  0  0  0  0  0  0  0  0  0  0  0
    0.8900   12.6820   -0.3150 C   0  0  0  0  0  0  0  0  0  0  0  0
    1.2410   12.5800   -1.6110 C   0  0  0  0  0  0  0  0  0  0  0  0
    1.3220   11.2110   -2.2990 C   0  0  1  0  0  0  0  0  0  0  0  0
    2.6420   11.1160   -3.1090 C   0  0  0  0  0  0  0  0  0  0  0  0
    2.8120   12.2730   -4.0890 C   0  0  0  0  0  0  0  0  0  0  0  0
    2.7840   13.6140   -3.3600 C   0  0  2  0  0  0  0  0  0  0  0  0
    3.9430   13.7080   -2.5260 O   0  0  0  0  0  0  0  0  0  0  0  0
    1.5040   13.8180   -2.5020 C   0  0  0  0  0  0  0  0  0  0  0  0
    0.2810   14.0170   -3.4310 C   0  0  0  0  0  0  0  0  0  0  0  0
    1.6680   15.1440   -1.7100 C   0  0  0  0  0  0  0  0  0  0  0  0
    1.0890    9.9490   -1.3620 C   0  0  1  0  0  0  0  0  0  0  0  0
    2.4350    9.5210   -0.7010 C   0  0  0  0  0  0  0  0  0  0  0  0
    0.6220    8.7320   -2.2450 C   0  0  0  0  0  0  0  0  0  0  0  0
   -0.8920    8.6000   -2.5010 C   0  0  0  0  0  0  0  0  0  0  0  0
   -1.6810    8.7120   -1.1920 C   0  0  2  0  0  0  0  0  0  0  0  0
   -1.2590    7.5140   -0.2750 C   0  0  0  0  0  0  0  0  0  0  0  0
   -4.6268    6.2062   -3.2357 H   0  0  0  0  0  0  0  0  0  0  0  0
   -4.5819    7.9792   -3.5204 H   0  0  0  0  0  0  0  0  0  0  0  0
   -3.0565    7.0307   -3.5204 H   0  0  0  0  0  0  0  0  0  0  0  0
   -3.2834    6.5543   -1.1551 H   0  0  0  0  0  0  0  0  0  0  0  0
   -5.1095    6.8570    0.1581 H   0  0  0  0  0  0  0  0  0  0  0  0
   -5.6233    8.3563   -0.7536 H   0  0  0  0  0  0  0  0  0  0  0  0
   -6.1611    6.6176   -2.6570 H   0  0  0  0  0  0  0  0  0  0  0  0
   -6.2696    5.4739   -1.2543 H   0  0  0  0  0  0  0  0  0  0  0  0
   -7.3045    7.9211   -0.7773 H   0  0  0  0  0  0  0  0  0  0  0  0
   -8.5888    5.0145   -3.2747 H   0  0  0  0  0  0  0  0  0  0  0  0
   -9.7091    6.1865   -4.0479 H   0  0  0  0  0  0  0  0  0  0  0  0
   -7.9405    6.5006   -4.0479 H   0  0  0  0  0  0  0  0  0  0  0  0
  -10.2958    7.9016   -0.9754 H   0  0  0  0  0  0  0  0  0  0  0  0
   -9.8498    8.6934   -2.5249 H   0  0  0  0  0  0  0  0  0  0  0  0
  -10.9591    7.2806   -2.5249 H   0  0  0  0  0  0  0  0  0  0  0  0
   -3.5364    9.2436   -2.2183 H   0  0  0  0  0  0  0  0  0  0  0  0
   -4.4917   10.0780   -0.1625 H   0  0  0  0  0  0  0  0  0  0  0  0
   -4.0424    8.6104    0.7324 H   0  0  0  0  0  0  0  0  0  0  0  0
   -2.7059   11.1315    0.8974 H   0  0  0  0  0  0  0  0  0  0  0  0
   -2.0305    9.6151    1.4874 H   0  0  0  0  0  0  0  0  0  0  0  0
   -2.2035   12.1639   -0.8390 H   0  0  0  0  0  0  0  0  0  0  0  0
   -1.0437   11.6484   -2.1101 H   0  0  0  0  0  0  0  0  0  0  0  0
   -2.7208   11.0049   -2.1101 H   0  0  0  0  0  0  0  0  0  0  0  0
    0.1973    9.4472    0.5565 H   0  0  0  0  0  0  0  0  0  0  0  0
   -0.4132   11.8812    1.1378 H   0  0  0  0  0  0  0  0  0  0  0  0
    1.3337   11.3012    1.1817 H   0  0  0  0  0  0  0  0  0  0  0  0
    0.9215   13.6840    0.1377 H   0  0  0  0  0  0  0  0  0  0  0  0
    0.4607   11.1623   -2.9815 H   0  0  0  0  0  0  0  0  0  0  0  0
    3.4881   11.1221   -2.4062 H   0  0  0  0  0  0  0  0  0  0  0  0
    2.6082   10.1852   -3.6942 H   0  0  0  0  0  0  0  0  0  0  0  0
    3.7755   12.1659   -4.6088 H   0  0  0  0  0  0  0  0  0  0  0  0
    1.9813   12.2477   -4.8096 H   0  0  0  0  0  0  0  0  0  0  0  0
    2.7784   14.4058   -4.1236 H   0  0  0  0  0  0  0  0  0  0  0  0
    3.8730   13.0180   -1.8450 H   0  0  0  0  0  0  0  0  0  0  0  0
   -0.6226   14.1640   -2.8212 H   0  0  0  0  0  0  0  0  0  0  0  0
    0.4427   14.9006   -4.0658 H   0  0  0  0  0  0  0  0  0  0  0  0
    0.1542   13.1277   -4.0658 H   0  0  0  0  0  0  0  0  0  0  0  0
    1.6418   14.9322   -0.6309 H   0  0  0  0  0  0  0  0  0  0  0  0
    2.6305   15.6092   -1.9691 H   0  0  0  0  0  0  0  0  0  0  0  0
    0.8478   15.8297   -1.9691 H   0  0  0  0  0  0  0  0  0  0  0  0
    2.3326    9.5536    0.3937 H   0  0  0  0  0  0  0  0  0  0  0  0
    2.6888    8.4978   -1.0152 H   0  0  0  0  0  0  0  0  0  0  0  0
    3.2331   10.2097   -1.0152 H   0  0  0  0  0  0  0  0  0  0  0  0
    1.1184    8.8203   -3.2226 H   0  0  0  0  0  0  0  0  0  0  0  0
    0.8957    7.8361   -1.6684 H   0  0  0  0  0  0  0  0  0  0  0  0
   -1.2126    9.4003   -3.1841 H   0  0  0  0  0  0  0  0  0  0  0  0
   -1.0880    7.6131   -2.9456 H   0  0  0  0  0  0  0  0  0  0  0  0
   -1.3619    7.8062    0.7805 H   0  0  0  0  0  0  0  0  0  0  0  0
   -1.9065    6.6489   -0.4808 H   0  0  0  0  0  0  0  0  0  0  0  0
   -0.2123    7.2457   -0.4808 H   0  0  0  0  0  0  0  0  0  0  0  0
  1  2  1  0
  2  3  1  0
  3  4  1  0
  4  5  1  0
  5  6  1  0
  6  7  1  0
  7  8  1  0
  7  9  1  0
  2 10  1  0
 10 11  1  0
 11 12  1  0
 12 13  1  0
 13 14  1  6
 13 15  1  0
 15 16  1  0
 16 17  1  0
 17 18  2  0
 18 19  1  0
 19 20  1  0
 20 21  1  0
 21 22  1  0
 22 23  1  0
 22 24  1  0
 24 25  1  0
 24 26  1  0
 19 27  1  0
 27 28  1  1
 27 29  1  0
 29 30  1  0
 30 31  1  0
 31 32  1  1
  7  5  1  0
 31 10  1  0
 31 13  1  0
 27 15  1  0
 24 18  1  0
  1 33  1  0
  1 34  1  0
  1 35  1  0
  2 36  1  1
  3 37  1  0
  3 38  1  0
  4 39  1  0
  4 40  1  0
  5 41  1  1
  8 42  1  0
  8 43  1  0
  8 44  1  0
  9 45  1  0
  9 46  1  0
  9 47  1  0
 10 48  1  6
 11 49  1  0
 11 50  1  0
 12 51  1  0
 12 52  1  0
 14 53  1  0
 14 54  1  0
 14 55  1  0
 15 56  1  1
 16 57  1  0
 16 58  1  0
 17 59  1  0
 19 60  1  6
 20 61  1  0
 20 62  1  0
 21 63  1  0
 21 64  1  0
 22 65  1  6
 23 66  1  0
 25 67  1  0
 25 68  1  0
 25 69  1  0
 26 70  1  0
 26 71  1  0
 26 72  1  0
 28 73  1  0
 28 74  1  0
 28 75  1  0
 29 76  1  0
 29 77  1  0
 30 78  1  0
 30 79  1  0
 32 80  1  0
 32 81  1  0
 32 82  1  0
M  END
>  <meeko>  (3) 
{"is_sidechain": [false], "intermolecular_energy": 2.731, "internal_energy": -0.839}

$$$$
EPH_relaxed_0001_pdb2pqr_Repair_157_r2_0001_out
     RDKit          3D

 82 86  0  0  0  0  0  0  0  0999 V2000
   -0.8880   17.8610    0.0140 C   0  0  0  0  0  0  0  0  0  0  0  0
    0.4100   17.5110   -0.7190 C   0  0  2  0  0  0  0  0  0  0  0  0
    0.8210   18.6030   -1.7260 C   0  0  0  0  0  0  0  0  0  0  0  0
    1.2150   19.9290   -1.0690 C   0  0  0  0  0  0  0  0  0  0  0  0
    2.3790   19.7620   -0.1380 C   0  0  2  0  0  0  0  0  0  0  0  0
    2.3060   18.6090    0.7100 O   0  0  0  0  0  0  0  0  0  0  0  0
    2.2680   19.8840    1.3700 C   0  0  0  0  0  0  0  0  0  0  0  0
    0.9620   20.1870    2.0340 C   0  0  0  0  0  0  0  0  0  0  0  0
    3.5040   20.1940    2.1550 C   0  0  0  0  0  0  0  0  0  0  0  0
    0.2570   16.1740   -1.4350 C   0  0  1  0  0  0  0  0  0  0  0  0
    0.7530   16.2230   -2.9040 C   0  0  0  0  0  0  0  0  0  0  0  0
    1.3760   14.8370   -3.2130 C   0  0  0  0  0  0  0  0  0  0  0  0
    0.9260   13.9370   -2.0380 C   0  0  1  0  0  0  0  0  0  0  0  0
   -0.5290   13.5030   -2.4000 C   0  0  0  0  0  0  0  0  0  0  0  0
    1.8350   12.7040   -1.7250 C   0  0  2  0  0  0  0  0  0  0  0  0
    1.9420   11.6680   -2.8570 C   0  0  0  0  0  0  0  0  0  0  0  0
    0.9270   10.5740   -2.8190 C   0  0  0  0  0  0  0  0  0  0  0  0
    0.1490   10.2650   -1.7650 C   0  0  0  0  0  0  0  0  0  0  0  0
    0.3190   10.9870   -0.4220 C   0  0  1  0  0  0  0  0  0  0  0  0
    0.3350    9.9460    0.7280 C   0  0  0  0  0  0  0  0  0  0  0  0
   -0.8880    9.0330    0.7070 C   0  0  0  0  0  0  0  0  0  0  0  0
   -0.9900    8.2890   -0.6220 C   0  0  2  0  0  0  0  0  0  0  0  0
    0.1090    7.3790   -0.7260 O   0  0  0  0  0  0  0  0  0  0  0  0
   -1.0040    9.2350   -1.8550 C   0  0  0  0  0  0  0  0  0  0  0  0
   -2.3450   10.0090   -1.9020 C   0  0  0  0  0  0  0  0  0  0  0  0
   -0.9670    8.3550   -3.1330 C   0  0  0  0  0  0  0  0  0  0  0  0
    1.5310   12.0110   -0.3350 C   0  0  1  0  0  0  0  0  0  0  0  0
    2.8330   11.2610    0.0830 C   0  0  0  0  0  0  0  0  0  0  0  0
    1.2380   13.0590    0.8040 C   0  0  0  0  0  0  0  0  0  0  0  0
    0.4380   14.3130    0.4050 C   0  0  0  0  0  0  0  0  0  0  0  0
    1.0270   14.9630   -0.8510 C   0  0  2  0  0  0  0  0  0  0  0  0
    2.4840   15.4290   -0.5100 C   0  0  0  0  0  0  0  0  0  0  0  0
   -0.7195   17.8156    1.1001 H   0  0  0  0  0  0  0  0  0  0  0  0
   -1.2047   18.8766   -0.2657 H   0  0  0  0  0  0  0  0  0  0  0  0
   -1.6723   17.1423   -0.2657 H   0  0  0  0  0  0  0  0  0  0  0  0
    1.2076   17.4408    0.0353 H   0  0  0  0  0  0  0  0  0  0  0  0
    1.6795   18.2346   -2.3068 H   0  0  0  0  0  0  0  0  0  0  0  0
   -0.0569   18.8052   -2.3572 H   0  0  0  0  0  0  0  0  0  0  0  0
    1.4873   20.6492   -1.8546 H   0  0  0  0  0  0  0  0  0  0  0  0
    0.3566   20.2903   -0.4837 H   0  0  0  0  0  0  0  0  0  0  0  0
    3.0595   20.2252   -0.8676 H   0  0  0  0  0  0  0  0  0  0  0  0
    1.0903   20.1572    3.1261 H   0  0  0  0  0  0  0  0  0  0  0  0
    0.6207   21.1882    1.7321 H   0  0  0  0  0  0  0  0  0  0  0  0
    0.2148   19.4384    1.7321 H   0  0  0  0  0  0  0  0  0  0  0  0
    3.2792   20.1376    3.2303 H   0  0  0  0  0  0  0  0  0  0  0  0
    4.2891   19.4649    1.9058 H   0  0  0  0  0  0  0  0  0  0  0  0
    3.8521   21.2073    1.9058 H   0  0  0  0  0  0  0  0  0  0  0  0
   -0.8262   16.0239   -1.3165 H   0  0  0  0  0  0  0  0  0  0  0  0
   -0.0906   16.4187   -3.5822 H   0  0  0  0  0  0  0  0  0  0  0  0
    1.4900   17.0273   -3.0451 H   0  0  0  0  0  0  0  0  0  0  0  0
    0.9980   14.4456   -4.1690 H   0  0  0  0  0  0  0  0  0  0  0  0
    2.4709   14.8833   -3.3078 H   0  0  0  0  0  0  0  0  0  0  0  0
   -1.1013   13.3323   -1.4762 H   0  0  0  0  0  0  0  0  0  0  0  0
   -1.0123   14.2961   -2.9894 H   0  0  0  0  0  0  0  0  0  0  0  0
   -0.4988   12.5748   -2.9894 H   0  0  0  0  0  0  0  0  0  0  0  0
    2.8321   13.1612   -1.6431 H   0  0  0  0  0  0  0  0  0  0  0  0
    1.8340   12.1986   -3.8145 H   0  0  0  0  0  0  0  0  0  0  0  0
    2.9198   11.1801   -2.7312 H   0  0  0  0  0  0  0  0  0  0  0  0
    0.8045    9.9691   -3.7296 H   0  0  0  0  0  0  0  0  0  0  0  0
   -0.5566   11.6445   -0.3172 H   0  0  0  0  0  0  0  0  0  0  0  0
    1.2391    9.3269    0.6309 H   0  0  0  0  0  0  0  0  0  0  0  0
    0.3234   10.4985    1.6791 H   0  0  0  0  0  0  0  0  0  0  0  0
   -0.8050    8.3011    1.5240 H   0  0  0  0  0  0  0  0  0  0  0  0
   -1.7895    9.6504    0.8341 H   0  0  0  0  0  0  0  0  0  0  0  0
   -1.9510    7.7538   -0.6273 H   0  0  0  0  0  0  0  0  0  0  0  0
   -0.2170    6.5710   -1.1560 H   0  0  0  0  0  0  0  0  0  0  0  0
   -2.6897   10.2079   -0.8765 H   0  0  0  0  0  0  0  0  0  0  0  0
   -2.1998   10.9622   -2.4314 H   0  0  0  0  0  0  0  0  0  0  0  0
   -3.0978    9.4065   -2.4314 H   0  0  0  0  0  0  0  0  0  0  0  0
   -0.9224    7.2939   -2.8464 H   0  0  0  0  0  0  0  0  0  0  0  0
   -1.8735    8.5360   -3.7292 H   0  0  0  0  0  0  0  0  0  0  0  0
   -0.0788    8.6114   -3.7292 H   0  0  0  0  0  0  0  0  0  0  0  0
    2.8982   11.2234    1.1804 H   0  0  0  0  0  0  0  0  0  0  0  0
    2.8112   10.2370   -0.3183 H   0  0  0  0  0  0  0  0  0  0  0  0
    3.7078   11.7936   -0.3183 H   0  0  0  0  0  0  0  0  0  0  0  0
    0.6742   12.5422    1.5946 H   0  0  0  0  0  0  0  0  0  0  0  0
    2.2255   13.4335    1.1114 H   0  0  0  0  0  0  0  0  0  0  0  0
   -0.6051   14.0261    0.2062 H   0  0  0  0  0  0  0  0  0  0  0  0
    0.4874   15.0379    1.2309 H   0  0  0  0  0  0  0  0  0  0  0  0
    2.6099   15.4693    0.5820 H   0  0  0  0  0  0  0  0  0  0  0  0
    3.2059   14.7169   -0.9363 H   0  0  0  0  0  0  0  0  0  0  0  0
    2.6587   16.4278   -0.9363 H   0  0  0  0  0  0  0  0  0  0  0  0
  1  2  1  0
  2  3  1  0
  3  4  1  0
  4  5  1  0
  5  6  1  0
  6  7  1  0
  7  8  1  0
  7  9  1  0
  2 10  1  0
 10 11  1  0
 11 12  1  0
 12 13  1  0
 13 14  1  6
 13 15  1  0
 15 16  1  0
 16 17  1  0
 17 18  2  0
 18 19  1  0
 19 20  1  0
 20 21  1  0
 21 22  1  0
 22 23  1  0
 22 24  1  0
 24 25  1  0
 24 26  1  0
 19 27  1  0
 27 28  1  1
 27 29  1  0
 29 30  1  0
 30 31  1  0
 31 32  1  1
  7  5  1  0
 31 10  1  0
 31 13  1  0
 27 15  1  0
 24 18  1  0
  1 33  1  0
  1 34  1  0
  1 35  1  0
  2 36  1  1
  3 37  1  0
  3 38  1  0
  4 39  1  0
  4 40  1  0
  5 41  1  6
  8 42  1  0
  8 43  1  0
  8 44  1  0
  9 45  1  0
  9 46  1  0
  9 47  1  0
 10 48  1  6
 11 49  1  0
 11 50  1  0
 12 51  1  0
 12 52  1  0
 14 53  1  0
 14 54  1  0
 14 55  1  0
 15 56  1  1
 16 57  1  0
 16 58  1  0
 17 59  1  0
 19 60  1  1
 20 61  1  0
 20 62  1  0
 21 63  1  0
 21 64  1  0
 22 65  1  1
 23 66  1  0
 25 67  1  0
 25 68  1  0
 25 69  1  0
 26 70  1  0
 26 71  1  0
 26 72  1  0
 28 73  1  0
 28 74  1  0
 28 75  1  0
 29 76  1  0
 29 77  1  0
 30 78  1  0
 30 79  1  0
 32 80  1  0
 32 81  1  0
 32 82  1  0
M  END
>  <meeko>  (4) 
{"is_sidechain": [false], "intermolecular_energy": 2.731, "internal_energy": -0.839}

$$$$
EPH_relaxed_0001_pdb2pqr_Repair_157_r2_0001_out
     RDKit          3D

 82 86  0  0  0  0  0  0  0  0999 V2000
   -2.7240    7.8900   -1.5630 C   0  0  0  0  0  0  0  0  0  0  0  0
   -2.7900    9.2030   -0.7780 C   0  0  2  0  0  0  0  0  0  0  0  0
   -4.2170    9.7840   -0.7350 C   0  0  0  0  0  0  0  0  0  0  0  0
   -5.2990    8.7390   -0.4480 C   0  0  0  0  0  0  0  0  0  0  0  0
   -5.8200    8.1200   -1.7100 C   0  0  2  0  0  0  0  0  0  0  0  0
   -6.9840    8.7560   -2.2520 O   0  0  0  0  0  0  0  0  0  0  0  0
   -7.1540    7.4030   -1.8010 C   0  0  0  0  0  0  0  0  0  0  0  0
   -8.0490    7.2660   -0.6100 C   0  0  0  0  0  0  0  0  0  0  0  0
   -7.3630    6.4190   -2.9100 C   0  0  0  0  0  0  0  0  0  0  0  0
   -1.8320   10.2210   -1.3860 C   0  0  1  0  0  0  0  0  0  0  0  0
   -2.2540   11.6860   -1.0990 C   0  0  0  0  0  0  0  0  0  0  0  0
   -0.9480   12.5030   -0.9270 C   0  0  0  0  0  0  0  0  0  0  0  0
    0.1690   11.5660   -1.4450 C   0  0  1  0  0  0  0  0  0  0  0  0
    0.1300   11.7160   -2.9980 C   0  0  0  0  0  0  0  0  0  0  0  0
    1.6020   11.8200   -0.8760 C   0  0  2  0  0  0  0  0  0  0  0  0
    2.2030   13.1970   -1.2100 C   0  0  0  0  0  0  0  0  0  0  0  0
    2.9980   13.2560   -2.4720 C   0  0  0  0  0  0  0  0  0  0  0  0
    3.4610   12.1920   -3.1550 C   0  0  0  0  0  0  0  0  0  0  0  0
    3.2790   10.7680   -2.6140 C   0  0  1  0  0  0  0  0  0  0  0  0
    4.6180    9.9950   -2.7310 C   0  0  0  0  0  0  0  0  0  0  0  0
    5.1830   10.0120   -4.1480 C   0  0  0  0  0  0  0  0  0  0  0  0
    5.4050   11.4440   -4.6280 C   0  0  2  0  0  0  0  0  0  0  0  0
    6.4460   12.0370   -3.8450 O   0  0  0  0  0  0  0  0  0  0  0  0
    4.1260   12.3230   -4.5480 C   0  0  0  0  0  0  0  0  0  0  0  0
    3.1070   11.8580   -5.6180 C   0  0  0  0  0  0  0  0  0  0  0  0
    4.5200   13.7760   -4.9270 C   0  0  0  0  0  0  0  0  0  0  0  0
    2.6320   10.6540   -1.1670 C   0  0  1  0  0  0  0  0  0  0  0  0
    3.7420   10.7580   -0.0780 C   0  0  0  0  0  0  0  0  0  0  0  0
    1.9820    9.2290   -1.0060 C   0  0  0  0  0  0  0  0  0  0  0  0
    0.5240    9.0720   -1.4770 C   0  0  0  0  0  0  0  0  0  0  0  0
   -0.3590   10.1870   -0.9070 C   0  0  2  0  0  0  0  0  0  0  0  0
   -0.3580   10.0470    0.6540 C   0  0  0  0  0  0  0  0  0  0  0  0
   -2.6815    7.0446   -0.8605 H   0  0  0  0  0  0  0  0  0  0  0  0
   -3.6186    7.7960   -2.1962 H   0  0  0  0  0  0  0  0  0  0  0  0
   -1.8245    7.8862   -2.1962 H   0  0  0  0  0  0  0  0  0  0  0  0
   -2.4919    8.9835    0.2578 H   0  0  0  0  0  0  0  0  0  0  0  0
   -4.2564   10.5501    0.0534 H   0  0  0  0  0  0  0  0  0  0  0  0
   -4.4259   10.1972   -1.7328 H   0  0  0  0  0  0  0  0  0  0  0  0
   -4.8720    7.9487    0.1869 H   0  0  0  0  0  0  0  0  0  0  0  0
   -6.1360    9.2419    0.0584 H   0  0  0  0  0  0  0  0  0  0  0  0
   -4.8039    7.8295   -2.0151 H   0  0  0  0  0  0  0  0  0  0  0  0
   -7.4522    7.3573    0.3095 H   0  0  0  0  0  0  0  0  0  0  0  0
   -8.8123    8.0578   -0.6319 H   0  0  0  0  0  0  0  0  0  0  0  0
   -8.5405    6.2822   -0.6319 H   0  0  0  0  0  0  0  0  0  0  0  0
   -7.5738    5.4266   -2.4848 H   0  0  0  0  0  0  0  0  0  0  0  0
   -8.2129    6.7403   -3.5300 H   0  0  0  0  0  0  0  0  0  0  0  0
   -6.4558    6.3671   -3.5300 H   0  0  0  0  0  0  0  0  0  0  0  0
   -1.8915    9.9199   -2.4423 H   0  0  0  0  0  0  0  0  0  0  0  0
   -2.8408   12.0828   -1.9406 H   0  0  0  0  0  0  0  0  0  0  0  0
   -2.8793   11.7468   -0.1961 H   0  0  0  0  0  0  0  0  0  0  0  0
   -0.9868   13.4272   -1.5222 H   0  0  0  0  0  0  0  0  0  0  0  0
   -0.7833   12.8120    0.1158 H   0  0  0  0  0  0  0  0  0  0  0  0
   -0.1388   12.7500   -3.2599 H   0  0  0  0  0  0  0  0  0  0  0  0
    1.1199   11.4779   -3.4144 H   0  0  0  0  0  0  0  0  0  0  0  0
   -0.6186   11.0259   -3.4144 H   0  0  0  0  0  0  0  0  0  0  0  0
    1.4257   11.8265    0.2098 H   0  0  0  0  0  0  0  0  0  0  0  0
    1.3760   13.9173   -1.2951 H   0  0  0  0  0  0  0  0  0  0  0  0
    2.9060   13.4280   -0.3961 H   0  0  0  0  0  0  0  0  0  0  0  0
    3.2247   14.2528   -2.8783 H   0  0  0  0  0  0  0  0  0  0  0  0
    2.5183   10.2946   -3.2521 H   0  0  0  0  0  0  0  0  0  0  0  0
    5.3516   10.4565   -2.0536 H   0  0  0  0  0  0  0  0  0  0  0  0
    4.4220    8.9463   -2.4629 H   0  0  0  0  0  0  0  0  0  0  0  0
    6.1431    9.4752   -4.1595 H   0  0  0  0  0  0  0  0  0  0  0  0
    4.4621    9.5235   -4.8200 H   0  0  0  0  0  0  0  0  0  0  0  0
    5.6856   11.3952   -5.6905 H   0  0  0  0  0  0  0  0  0  0  0  0
    7.0300   12.5230   -4.4520 H   0  0  0  0  0  0  0  0  0  0  0  0
    2.2141   11.4505   -5.1214 H   0  0  0  0  0  0  0  0  0  0  0  0
    2.8188   12.7137   -6.2462 H   0  0  0  0  0  0  0  0  0  0  0  0
    3.5645   11.0795   -6.2462 H   0  0  0  0  0  0  0  0  0  0  0  0
    4.6793   14.3635   -4.0108 H   0  0  0  0  0  0  0  0  0  0  0  0
    5.4468   13.7619   -5.5194 H   0  0  0  0  0  0  0  0  0  0  0  0
    3.7131   14.2321   -5.5194 H   0  0  0  0  0  0  0  0  0  0  0  0
    3.2816   10.7149    0.9201 H   0  0  0  0  0  0  0  0  0  0  0  0
    4.4477    9.9220   -0.1927 H   0  0  0  0  0  0  0  0  0  0  0  0
    4.2801   11.7105   -0.1927 H   0  0  0  0  0  0  0  0  0  0  0  0
    2.5949    8.5174   -1.5787 H   0  0  0  0  0  0  0  0  0  0  0  0
    1.9547    9.0466    0.0784 H   0  0  0  0  0  0  0  0  0  0  0  0
    0.4940    9.1153   -2.5757 H   0  0  0  0  0  0  0  0  0  0  0  0
    0.1420    8.1044   -1.1195 H   0  0  0  0  0  0  0  0  0  0  0  0
   -0.3651   11.0472    1.1118 H   0  0  0  0  0  0  0  0  0  0  0  0
   -1.2522    9.4914    0.9729 H   0  0  0  0  0  0  0  0  0  0  0  0
    0.5440    9.5042    0.9729 H   0  0  0  0  0  0  0  0  0  0  0  0
  1  2  1  0
  2  3  1  0
  3  4  1  0
  4  5  1  0
  5  6  1  0
  6  7  1  0
  7  8  1  0
  7  9  1  0
  2 10  1  0
 10 11  1  0
 11 12  1  0
 12 13  1  0
 13 14  1  6
 13 15  1  0
 15 16  1  0
 16 17  1  0
 17 18  2  0
 18 19  1  0
 19 20  1  0
 20 21  1  0
 21 22  1  0
 22 23  1  0
 22 24  1  0
 24 25  1  0
 24 26  1  0
 19 27  1  0
 27 28  1  1
 27 29  1  0
 29 30  1  0
 30 31  1  0
 31 32  1  1
  7  5  1  0
 31 10  1  0
 31 13  1  0
 27 15  1  0
 24 18  1  0
  1 33  1  0
  1 34  1  0
  1 35  1  0
  2 36  1  1
  3 37  1  0
  3 38  1  0
  4 39  1  0
  4 40  1  0
  5 41  1  6
  8 42  1  0
  8 43  1  0
  8 44  1  0
  9 45  1  0
  9 46  1  0
  9 47  1  0
 10 48  1  6
 11 49  1  0
 11 50  1  0
 12 51  1  0
 12 52  1  0
 14 53  1  0
 14 54  1  0
 14 55  1  0
 15 56  1  1
 16 57  1  0
 16 58  1  0
 17 59  1  0
 19 60  1  6
 20 61  1  0
 20 62  1  0
 21 63  1  0
 21 64  1  0
 22 65  1  6
 23 66  1  0
 25 67  1  0
 25 68  1  0
 25 69  1  0
 26 70  1  0
 26 71  1  0
 26 72  1  0
 28 73  1  0
 28 74  1  0
 28 75  1  0
 29 76  1  0
 29 77  1  0
 30 78  1  0
 30 79  1  0
 32 80  1  0
 32 81  1  0
 32 82  1  0
M  END
>  <meeko>  (5) 
{"is_sidechain": [false], "intermolecular_energy": 2.731, "internal_energy": -0.839}

$$$$
EPH_relaxed_0001_pdb2pqr_Repair_157_r2_0001_out
     RDKit          3D

 82 86  0  0  0  0  0  0  0  0999 V2000
   -3.8430    6.8590   -2.5830 C   0  0  0  0  0  0  0  0  0  0  0  0
   -4.3910    7.6000   -1.3600 C   0  0  2  0  0  0  0  0  0  0  0  0
   -5.8820    7.9620   -1.5200 C   0  0  0  0  0  0  0  0  0  0  0  0
   -6.8350    6.8210   -1.1570 C   0  0  0  0  0  0  0  0  0  0  0  0
   -8.1850    7.0070   -1.7810 C   0  0  2  0  0  0  0  0  0  0  0  0
   -8.6960    8.3450   -1.7140 O   0  0  0  0  0  0  0  0  0  0  0  0
   -9.4330    7.3480   -0.9880 C   0  0  0  0  0  0  0  0  0  0  0  0
   -9.3900    7.5210    0.4980 C   0  0  0  0  0  0  0  0  0  0  0  0
  -10.7690    7.0310   -1.5850 C   0  0  0  0  0  0  0  0  0  0  0  0
   -3.5730    8.8600   -1.1060 C   0  0  1  0  0  0  0  0  0  0  0  0
   -3.8090    9.4500    0.3100 C   0  0  0  0  0  0  0  0  0  0  0  0
   -2.4560   10.0480    0.7770 C   0  0  0  0  0  0  0  0  0  0  0  0
   -1.5830   10.0810   -0.5000 C   0  0  1  0  0  0  0  0  0  0  0  0
   -2.0330   11.3680   -1.2600 C   0  0  0  0  0  0  0  0  0  0  0  0
   -0.0360   10.0520   -0.2800 C   0  0  2  0  0  0  0  0  0  0  0  0
    0.5360   11.2540    0.4910 C   0  0  0  0  0  0  0  0  0  0  0  0
    0.9610   12.4100   -0.3530 C   0  0  0  0  0  0  0  0  0  0  0  0
    1.1520   12.3770   -1.6850 C   0  0  0  0  0  0  0  0  0  0  0  0
    1.0350   11.0610   -2.4650 C   0  0  1  0  0  0  0  0  0  0  0  0
    2.2410   10.9230   -3.4310 C   0  0  0  0  0  0  0  0  0  0  0  0
    2.3990   12.1320   -4.3470 C   0  0  0  0  0  0  0  0  0  0  0  0
    2.5720   13.4130   -3.5340 C   0  0  2  0  0  0  0  0  0  0  0  0
    3.8210   13.3530   -2.8390 O   0  0  0  0  0  0  0  0  0  0  0  0
    1.4200   13.6540   -2.5190 C   0  0  0  0  0  0  0  0  0  0  0  0
    0.1220   14.0180   -3.2810 C   0  0  0  0  0  0  0  0  0  0  0  0
    1.7870   14.8990   -1.6670 C   0  0  0  0  0  0  0  0  0  0  0  0
    0.8000    9.7550   -1.5910 C   0  0  1  0  0  0  0  0  0  0  0  0
    2.1690    9.1740   -1.1240 C   0  0  0  0  0  0  0  0  0  0  0  0
    0.1310    8.6490   -2.4890 C   0  0  0  0  0  0  0  0  0  0  0  0
   -1.4080    8.6570   -2.5710 C   0  0  0  0  0  0  0  0  0  0  0  0
   -2.0310    8.7330   -1.1740 C   0  0  2  0  0  0  0  0  0  0  0  0
   -1.6140    7.4400   -0.3930 C   0  0  0  0  0  0  0  0  0  0  0  0
   -3.2193    6.0157   -2.2517 H   0  0  0  0  0  0  0  0  0  0  0  0
   -4.6802    6.4805   -3.1879 H   0  0  0  0  0  0  0  0  0  0  0  0
   -3.2359    7.5486   -3.1879 H   0  0  0  0  0  0  0  0  0  0  0  0
   -4.3068    6.9225   -0.4975 H   0  0  0  0  0  0  0  0  0  0  0  0
   -6.1030    8.8197   -0.8677 H   0  0  0  0  0  0  0  0  0  0  0  0
   -6.0448    8.1904   -2.5837 H   0  0  0  0  0  0  0  0  0  0  0  0
   -6.4062    5.8720   -1.5112 H   0  0  0  0  0  0  0  0  0  0  0  0
   -6.9603    6.8132   -0.0642 H   0  0  0  0  0  0  0  0  0  0  0  0
   -7.9748    6.2255   -2.5261 H   0  0  0  0  0  0  0  0  0  0  0  0
   -9.6278    6.5641    0.9856 H   0  0  0  0  0  0  0  0  0  0  0  0
   -8.3837    7.8464    0.8003 H   0  0  0  0  0  0  0  0  0  0  0  0
  -10.1269    8.2797    0.8003 H   0  0  0  0  0  0  0  0  0  0  0  0
  -11.4985    6.8579   -0.7801 H   0  0  0  0  0  0  0  0  0  0  0  0
  -11.1024    7.8750   -2.2067 H   0  0  0  0  0  0  0  0  0  0  0  0
  -10.6877    6.1272   -2.2067 H   0  0  0  0  0  0  0  0  0  0  0  0
   -3.9355    9.4851   -1.9354 H   0  0  0  0  0  0  0  0  0  0  0  0
   -4.5769   10.2366    0.2695 H   0  0  0  0  0  0  0  0  0  0  0  0
   -4.1599    8.6750    1.0073 H   0  0  0  0  0  0  0  0  0  0  0  0
   -2.5973   11.0628    1.1772 H   0  0  0  0  0  0  0  0  0  0  0  0
   -1.9948    9.4580    1.5827 H   0  0  0  0  0  0  0  0  0  0  0  0
   -2.3054   12.1470   -0.5327 H   0  0  0  0  0  0  0  0  0  0  0  0
   -1.2076   11.7284   -1.8915 H   0  0  0  0  0  0  0  0  0  0  0  0
   -2.9032   11.1356   -1.8915 H   0  0  0  0  0  0  0  0  0  0  0  0
    0.0915    9.1838    0.3833 H   0  0  0  0  0  0  0  0  0  0  0  0
   -0.2366   11.6088    1.1890 H   0  0  0  0  0  0  0  0  0  0  0  0
    1.4467   10.8902    0.9892 H   0  0  0  0  0  0  0  0  0  0  0  0
    1.1325   13.3696    0.1567 H   0  0  0  0  0  0  0  0  0  0  0  0
    0.1009   11.1313   -3.0417 H   0  0  0  0  0  0  0  0  0  0  0  0
    3.1587   10.8099   -2.8352 H   0  0  0  0  0  0  0  0  0  0  0  0
    2.0599   10.0440   -4.0671 H   0  0  0  0  0  0  0  0  0  0  0  0
    3.2839   11.9877   -4.9843 H   0  0  0  0  0  0  0  0  0  0  0  0
    1.4928   12.2267   -4.9633 H   0  0  0  0  0  0  0  0  0  0  0  0
    2.5505   14.2569   -4.2392 H   0  0  0  0  0  0  0  0  0  0  0  0
    3.7900   14.0070   -2.1200 H   0  0  0  0  0  0  0  0  0  0  0  0
   -0.6767   14.2420   -2.5586 H   0  0  0  0  0  0  0  0  0  0  0  0
    0.3029   14.9001   -3.9129 H   0  0  0  0  0  0  0  0  0  0  0  0
   -0.1822   13.1705   -3.9129 H   0  0  0  0  0  0  0  0  0  0  0  0
    1.7128   14.6471   -0.5988 H   0  0  0  0  0  0  0  0  0  0  0  0
    2.8156   15.2120   -1.8993 H   0  0  0  0  0  0  0  0  0  0  0  0
    1.0926   15.7199   -1.8993 H   0  0  0  0  0  0  0  0  0  0  0  0
    2.2050    9.1587   -0.0247 H   0  0  0  0  0  0  0  0  0  0  0  0
    2.2832    8.1499   -1.5089 H   0  0  0  0  0  0  0  0  0  0  0  0
    2.9849    9.8034   -1.5089 H   0  0  0  0  0  0  0  0  0  0  0  0
    0.5193    8.7705   -3.5110 H   0  0  0  0  0  0  0  0  0  0  0  0
    0.3885    7.6937   -2.0083 H   0  0  0  0  0  0  0  0  0  0  0  0
   -1.7326    9.5291   -3.1577 H   0  0  0  0  0  0  0  0  0  0  0  0
   -1.7384    7.7246   -3.0521 H   0  0  0  0  0  0  0  0  0  0  0  0
   -1.6751    7.6294    0.6889 H   0  0  0  0  0  0  0  0  0  0  0  0
   -2.2919    6.6158   -0.6598 H   0  0  0  0  0  0  0  0  0  0  0  0
   -0.5823    7.1672   -0.6598 H   0  0  0  0  0  0  0  0  0  0  0  0
  1  2  1  0
  2  3  1  0
  3  4  1  0
  4  5  1  0
  5  6  1  0
  6  7  1  0
  7  8  1  0
  7  9  1  0
  2 10  1  0
 10 11  1  0
 11 12  1  0
 12 13  1  0
 13 14  1  6
 13 15  1  0
 15 16  1  0
 16 17  1  0
 17 18  2  0
 18 19  1  0
 19 20  1  0
 20 21  1  0
 21 22  1  0
 22 23  1  0
 22 24  1  0
 24 25  1  0
 24 26  1  0
 19 27  1  0
 27 28  1  1
 27 29  1  0
 29 30  1  0
 30 31  1  0
 31 32  1  1
  7  5  1  0
 31 10  1  0
 31 13  1  0
 27 15  1  0
 24 18  1  0
  1 33  1  0
  1 34  1  0
  1 35  1  0
  2 36  1  1
  3 37  1  0
  3 38  1  0
  4 39  1  0
  4 40  1  0
  5 41  1  6
  8 42  1  0
  8 43  1  0
  8 44  1  0
  9 45  1  0
  9 46  1  0
  9 47  1  0
 10 48  1  6
 11 49  1  0
 11 50  1  0
 12 51  1  0
 12 52  1  0
 14 53  1  0
 14 54  1  0
 14 55  1  0
 15 56  1  1
 16 57  1  0
 16 58  1  0
 17 59  1  0
 19 60  1  6
 20 61  1  0
 20 62  1  0
 21 63  1  0
 21 64  1  0
 22 65  1  6
 23 66  1  0
 25 67  1  0
 25 68  1  0
 25 69  1  0
 26 70  1  0
 26 71  1  0
 26 72  1  0
 28 73  1  0
 28 74  1  0
 28 75  1  0
 29 76  1  0
 29 77  1  0
 30 78  1  0
 30 79  1  0
 32 80  1  0
 32 81  1  0
 32 82  1  0
M  END
>  <meeko>  (6) 
{"is_sidechain": [false], "intermolecular_energy": 2.731, "internal_energy": -0.839}

$$$$
EPH_relaxed_0001_pdb2pqr_Repair_157_r2_0001_out
     RDKit          3D

 82 86  0  0  0  0  0  0  0  0999 V2000
    1.0790   18.3720   -2.7510 C   0  0  0  0  0  0  0  0  0  0  0  0
    0.3390   17.4530   -1.7760 C   0  0  2  0  0  0  0  0  0  0  0  0
    0.8600   17.5990   -0.3320 C   0  0  0  0  0  0  0  0  0  0  0  0
    0.9860   19.0520    0.1330 C   0  0  0  0  0  0  0  0  0  0  0  0
   -0.2910   19.8110   -0.0660 C   0  0  2  0  0  0  0  0  0  0  0  0
   -0.9550   20.1930    1.1450 O   0  0  0  0  0  0  0  0  0  0  0  0
   -1.6560   19.2630    0.3050 C   0  0  0  0  0  0  0  0  0  0  0  0
   -1.8140   17.9010    0.9040 C   0  0  0  0  0  0  0  0  0  0  0  0
   -2.8650   19.8430   -0.3600 C   0  0  0  0  0  0  0  0  0  0  0  0
    0.4650   16.0030   -2.2310 C   0  0  1  0  0  0  0  0  0  0  0  0
    1.5400   15.8140   -3.3340 C   0  0  0  0  0  0  0  0  0  0  0  0
    2.1920   14.4290   -3.0900 C   0  0  0  0  0  0  0  0  0  0  0  0
    1.2580   13.7320   -2.0740 C   0  0  1  0  0  0  0  0  0  0  0  0
    0.0820   13.1670   -2.9320 C   0  0  0  0  0  0  0  0  0  0  0  0
    1.9080   12.6220   -1.1850 C   0  0  2  0  0  0  0  0  0  0  0  0
    2.4550   11.4070   -1.9550 C   0  0  0  0  0  0  0  0  0  0  0  0
    1.4870   10.2880   -2.1520 C   0  0  0  0  0  0  0  0  0  0  0  0
    0.3260   10.1330   -1.4890 C   0  0  0  0  0  0  0  0  0  0  0  0
   -0.0700   11.0910   -0.3580 C   0  0  1  0  0  0  0  0  0  0  0  0
   -0.5770   10.2740    0.8590 C   0  0  0  0  0  0  0  0  0  0  0  0
   -1.7020    9.3110    0.4900 C   0  0  0  0  0  0  0  0  0  0  0  0
   -1.2520    8.3380   -0.5960 C   0  0  2  0  0  0  0  0  0  0  0  0
   -0.2410    7.4800   -0.0560 O   0  0  0  0  0  0  0  0  0  0  0  0
   -0.7110    9.0470   -1.8690 C   0  0  0  0  0  0  0  0  0  0  0  0
   -1.8800    9.7320   -2.6190 C   0  0  0  0  0  0  0  0  0  0  0  0
   -0.1600    7.9550   -2.8260 C   0  0  0  0  0  0  0  0  0  0  0  0
    1.0210   12.1740    0.0460 C   0  0  1  0  0  0  0  0  0  0  0  0
    1.9980   11.5770    1.1050 C   0  0  0  0  0  0  0  0  0  0  0  0
    0.3040   13.3920    0.7410 C   0  0  0  0  0  0  0  0  0  0  0  0
   -0.2110   14.5130   -0.1820 C   0  0  0  0  0  0  0  0  0  0  0  0
    0.8760   14.9570   -1.1650 C   0  0  2  0  0  0  0  0  0  0  0  0
    2.0620   15.5500   -0.3320 C   0  0  0  0  0  0  0  0  0  0  0  0
    1.6706   19.1067   -2.1851 H   0  0  0  0  0  0  0  0  0  0  0  0
    1.7487   17.7716   -3.3843 H   0  0  0  0  0  0  0  0  0  0  0  0
    0.3496   18.8982   -3.3843 H   0  0  0  0  0  0  0  0  0  0  0  0
   -0.7194   17.7525   -1.7772 H   0  0  0  0  0  0  0  0  0  0  0  0
    0.1647   17.0777    0.3424 H   0  0  0  0  0  0  0  0  0  0  0  0
    1.8708   17.1656   -0.3097 H   0  0  0  0  0  0  0  0  0  0  0  0
    1.2441   19.0629    1.2022 H   0  0  0  0  0  0  0  0  0  0  0  0
    1.7700   19.5371   -0.4670 H   0  0  0  0  0  0  0  0  0  0  0  0
    0.0955   20.2654   -0.9902 H   0  0  0  0  0  0  0  0  0  0  0  0
   -1.8049   17.9797    2.0011 H   0  0  0  0  0  0  0  0  0  0  0  0
   -2.7688   17.4645    0.5756 H   0  0  0  0  0  0  0  0  0  0  0  0
   -0.9845   17.2575    0.5756 H   0  0  0  0  0  0  0  0  0  0  0  0
   -3.5766   20.1844    0.4062 H   0  0  0  0  0  0  0  0  0  0  0  0
   -2.5650   20.6952   -0.9875 H   0  0  0  0  0  0  0  0  0  0  0  0
   -3.3419   19.0757   -0.9875 H   0  0  0  0  0  0  0  0  0  0  0  0
   -0.5698   15.8212   -2.5569 H   0  0  0  0  0  0  0  0  0  0  0  0
    1.0712   15.8421   -4.3287 H   0  0  0  0  0  0  0  0  0  0  0  0
    2.2912   16.6166   -3.2952 H   0  0  0  0  0  0  0  0  0  0  0  0
    2.2450   13.8543   -4.0265 H   0  0  0  0  0  0  0  0  0  0  0  0
    3.2239   14.5133   -2.7185 H   0  0  0  0  0  0  0  0  0  0  0  0
   -0.7078   12.7876   -2.2670 H   0  0  0  0  0  0  0  0  0  0  0  0
   -0.3263   13.9673   -3.5667 H   0  0  0  0  0  0  0  0  0  0  0  0
    0.4516   12.3482   -3.5667 H   0  0  0  0  0  0  0  0  0  0  0  0
    2.7885   13.1365   -0.7727 H   0  0  0  0  0  0  0  0  0  0  0  0
    2.7817   11.7523   -2.9470 H   0  0  0  0  0  0  0  0  0  0  0  0
    3.2704   10.9990   -1.3397 H   0  0  0  0  0  0  0  0  0  0  0  0
    1.7442    9.5258   -2.9023 H   0  0  0  0  0  0  0  0  0  0  0  0
   -0.8860   11.7117   -0.7565 H   0  0  0  0  0  0  0  0  0  0  0  0
    0.2631    9.6942    1.2691 H   0  0  0  0  0  0  0  0  0  0  0  0
   -0.9757   10.9862    1.5964 H   0  0  0  0  0  0  0  0  0  0  0  0
   -1.9964    8.7417    1.3840 H   0  0  0  0  0  0  0  0  0  0  0  0
   -2.5529    9.8944    0.1084 H   0  0  0  0  0  0  0  0  0  0  0  0
   -2.1354    7.7627   -0.9099 H   0  0  0  0  0  0  0  0  0  0  0  0
    0.2240    7.9750    0.6390 H   0  0  0  0  0  0  0  0  0  0  0  0
   -2.5901   10.1481   -1.8892 H   0  0  0  0  0  0  0  0  0  0  0  0
   -1.4860   10.5421   -3.2503 H   0  0  0  0  0  0  0  0  0  0  0  0
   -2.3942    8.9923   -3.2503 H   0  0  0  0  0  0  0  0  0  0  0  0
    0.2580    7.1266   -2.2352 H   0  0  0  0  0  0  0  0  0  0  0  0
   -0.9757    7.5779   -3.4603 H   0  0  0  0  0  0  0  0  0  0  0  0
    0.6280    8.3871   -3.4603 H   0  0  0  0  0  0  0  0  0  0  0  0
    1.6268   11.8038    2.1153 H   0  0  0  0  0  0  0  0  0  0  0  0
    2.0598   10.4867    0.9733 H   0  0  0  0  0  0  0  0  0  0  0  0
    2.9964   12.0194    0.9733 H   0  0  0  0  0  0  0  0  0  0  0  0
   -0.5583   12.9970    1.2981 H   0  0  0  0  0  0  0  0  0  0  0  0
    1.0777   13.8645    1.3641 H   0  0  0  0  0  0  0  0  0  0  0  0
   -1.0785   14.1428   -0.7481 H   0  0  0  0  0  0  0  0  0  0  0  0
   -0.4955   15.3753    0.4389 H   0  0  0  0  0  0  0  0  0  0  0  0
    1.8463   15.4421    0.7412 H   0  0  0  0  0  0  0  0  0  0  0  0
    2.9881   15.0089   -0.5760 H   0  0  0  0  0  0  0  0  0  0  0  0
    2.1848   16.6155   -0.5760 H   0  0  0  0  0  0  0  0  0  0  0  0
  1  2  1  0
  2  3  1  0
  3  4  1  0
  4  5  1  0
  5  6  1  0
  6  7  1  0
  7  8  1  0
  7  9  1  0
  2 10  1  0
 10 11  1  0
 11 12  1  0
 12 13  1  0
 13 14  1  6
 13 15  1  0
 15 16  1  0
 16 17  1  0
 17 18  2  0
 18 19  1  0
 19 20  1  0
 20 21  1  0
 21 22  1  0
 22 23  1  0
 22 24  1  0
 24 25  1  0
 24 26  1  0
 19 27  1  0
 27 28  1  1
 27 29  1  0
 29 30  1  0
 30 31  1  0
 31 32  1  1
  7  5  1  0
 31 10  1  0
 31 13  1  0
 27 15  1  0
 24 18  1  0
  1 33  1  0
  1 34  1  0
  1 35  1  0
  2 36  1  1
  3 37  1  0
  3 38  1  0
  4 39  1  0
  4 40  1  0
  5 41  1  6
  8 42  1  0
  8 43  1  0
  8 44  1  0
  9 45  1  0
  9 46  1  0
  9 47  1  0
 10 48  1  6
 11 49  1  0
 11 50  1  0
 12 51  1  0
 12 52  1  0
 14 53  1  0
 14 54  1  0
 14 55  1  0
 15 56  1  1
 16 57  1  0
 16 58  1  0
 17 59  1  0
 19 60  1  6
 20 61  1  0
 20 62  1  0
 21 63  1  0
 21 64  1  0
 22 65  1  6
 23 66  1  0
 25 67  1  0
 25 68  1  0
 25 69  1  0
 26 70  1  0
 26 71  1  0
 26 72  1  0
 28 73  1  0
 28 74  1  0
 28 75  1  0
 29 76  1  0
 29 77  1  0
 30 78  1  0
 30 79  1  0
 32 80  1  0
 32 81  1  0
 32 82  1  0
M  END
>  <meeko>  (7) 
{"is_sidechain": [false], "intermolecular_energy": 2.731, "internal_energy": -0.839}

$$$$
EPH_relaxed_0001_pdb2pqr_Repair_157_r2_0001_out
     RDKit          3D

 82 86  0  0  0  0  0  0  0  0999 V2000
   -1.3540   10.3770    1.6640 C   0  0  0  0  0  0  0  0  0  0  0  0
   -2.0570   10.0720    0.3380 C   0  0  2  0  0  0  0  0  0  0  0  0
   -2.9410    8.8120    0.4250 C   0  0  0  0  0  0  0  0  0  0  0  0
   -4.2580    8.9290   -0.3460 C   0  0  0  0  0  0  0  0  0  0  0  0
   -4.7930    7.5840   -0.7370 C   0  0  2  0  0  0  0  0  0  0  0  0
   -4.8830    7.3640   -2.1500 O   0  0  0  0  0  0  0  0  0  0  0  0
   -6.1270    7.3840   -1.4310 C   0  0  0  0  0  0  0  0  0  0  0  0
   -7.0090    8.5430   -1.7750 C   0  0  0  0  0  0  0  0  0  0  0  0
   -6.7900    6.0460   -1.3350 C   0  0  0  0  0  0  0  0  0  0  0  0
   -1.0250    9.9080   -0.7720 C   0  0  1  0  0  0  0  0  0  0  0  0
   -1.5380    9.0250   -1.9400 C   0  0  0  0  0  0  0  0  0  0  0  0
   -0.9290    9.6060   -3.2410 C   0  0  0  0  0  0  0  0  0  0  0  0
    0.1660   10.5850   -2.7560 C   0  0  1  0  0  0  0  0  0  0  0  0
    1.3980    9.6810   -2.4340 C   0  0  0  0  0  0  0  0  0  0  0  0
    0.5410   11.7440   -3.7370 C   0  0  2  0  0  0  0  0  0  0  0  0
    1.1340   11.2930   -5.0830 C   0  0  0  0  0  0  0  0  0  0  0  0
    2.6210   11.1630   -5.1140 C   0  0  0  0  0  0  0  0  0  0  0  0
    3.4690   11.6670   -4.1990 C   0  0  0  0  0  0  0  0  0  0  0  0
    2.9560   12.5380   -3.0450 C   0  0  1  0  0  0  0  0  0  0  0  0
    3.8530   13.7960   -2.9060 C   0  0  0  0  0  0  0  0  0  0  0  0
    5.3310   13.4470   -2.7610 C   0  0  0  0  0  0  0  0  0  0  0  0
    5.8190   12.6310   -3.9560 C   0  0  2  0  0  0  0  0  0  0  0  0
    5.7820   13.4570   -5.1240 O   0  0  0  0  0  0  0  0  0  0  0  0
    4.9830   11.3430   -4.2000 C   0  0  0  0  0  0  0  0  0  0  0  0
    5.2620   10.3200   -3.0710 C   0  0  0  0  0  0  0  0  0  0  0  0
    5.4890   10.6880   -5.5130 C   0  0  0  0  0  0  0  0  0  0  0  0
    1.4070   12.8940   -3.0800 C   0  0  1  0  0  0  0  0  0  0  0  0
    1.1750   14.1730   -3.9420 C   0  0  0  0  0  0  0  0  0  0  0  0
    0.9270   13.2470   -1.6230 C   0  0  0  0  0  0  0  0  0  0  0  0
    0.4560   12.0730   -0.7430 C   0  0  0  0  0  0  0  0  0  0  0  0
   -0.5480   11.1930   -1.4950 C   0  0  2  0  0  0  0  0  0  0  0  0
   -1.8070   12.0690   -1.8130 C   0  0  0  0  0  0  0  0  0  0  0  0
   -2.0094   10.0926    2.5004 H   0  0  0  0  0  0  0  0  0  0  0  0
   -0.4163    9.8048    1.7220 H   0  0  0  0  0  0  0  0  0  0  0  0
   -1.1313   11.4527    1.7220 H   0  0  0  0  0  0  0  0  0  0  0  0
   -2.7163   10.9226    0.1105 H   0  0  0  0  0  0  0  0  0  0  0  0
   -2.3745    7.9617    0.0174 H   0  0  0  0  0  0  0  0  0  0  0  0
   -3.2006    8.6744    1.4850 H   0  0  0  0  0  0  0  0  0  0  0  0
   -4.9990    9.4365    0.2891 H   0  0  0  0  0  0  0  0  0  0  0  0
   -4.0676    9.5027   -1.2650 H   0  0  0  0  0  0  0  0  0  0  0  0
   -4.3503    7.1215    0.1575 H   0  0  0  0  0  0  0  0  0  0  0  0
   -7.3695    9.0167   -0.8500 H   0  0  0  0  0  0  0  0  0  0  0  0
   -6.4382    9.2760   -2.3639 H   0  0  0  0  0  0  0  0  0  0  0  0
   -7.8676    8.1882   -2.3639 H   0  0  0  0  0  0  0  0  0  0  0  0
   -6.9229    5.7778   -0.2765 H   0  0  0  0  0  0  0  0  0  0  0  0
   -7.7720    6.0871   -1.8290 H   0  0  0  0  0  0  0  0  0  0  0  0
   -6.1625    5.2895   -1.8290 H   0  0  0  0  0  0  0  0  0  0  0  0
   -0.1979    9.4735   -0.1914 H   0  0  0  0  0  0  0  0  0  0  0  0
   -1.2103    7.9843   -1.8003 H   0  0  0  0  0  0  0  0  0  0  0  0
   -2.6371    9.0272   -1.9833 H   0  0  0  0  0  0  0  0  0  0  0  0
   -0.4902    8.8060   -3.8554 H   0  0  0  0  0  0  0  0  0  0  0  0
   -1.6834   10.1020   -3.8694 H   0  0  0  0  0  0  0  0  0  0  0  0
    1.5149    9.5953   -1.3436 H   0  0  0  0  0  0  0  0  0  0  0  0
    1.2421    8.6814   -2.8658 H   0  0  0  0  0  0  0  0  0  0  0  0
    2.3048   10.1296   -2.8658 H   0  0  0  0  0  0  0  0  0  0  0  0
   -0.4408   12.1796   -3.9743 H   0  0  0  0  0  0  0  0  0  0  0  0
    0.7020   10.3128   -5.3332 H   0  0  0  0  0  0  0  0  0  0  0  0
    0.8828   12.0832   -5.8059 H   0  0  0  0  0  0  0  0  0  0  0  0
    3.0605   10.6083   -5.9561 H   0  0  0  0  0  0  0  0  0  0  0  0
    3.0377   11.9198   -2.1389 H   0  0  0  0  0  0  0  0  0  0  0  0
    3.7245   14.4215   -3.8017 H   0  0  0  0  0  0  0  0  0  0  0  0
    3.5442   14.3274   -1.9937 H   0  0  0  0  0  0  0  0  0  0  0  0
    5.9157   14.3765   -2.6969 H   0  0  0  0  0  0  0  0  0  0  0  0
    5.4620   12.8464   -1.8488 H   0  0  0  0  0  0  0  0  0  0  0  0
    6.8450   12.3020   -3.7346 H   0  0  0  0  0  0  0  0  0  0  0  0
    6.6850   13.7810   -5.2830 H   0  0  0  0  0  0  0  0  0  0  0  0
    5.1291   10.8071   -2.0937 H   0  0  0  0  0  0  0  0  0  0  0  0
    4.5610    9.4768   -3.1587 H   0  0  0  0  0  0  0  0  0  0  0  0
    6.2940    9.9495   -3.1587 H   0  0  0  0  0  0  0  0  0  0  0  0
    6.1449    9.8390   -5.2701 H   0  0  0  0  0  0  0  0  0  0  0  0
    4.6296   10.3313   -6.0997 H   0  0  0  0  0  0  0  0  0  0  0  0
    6.0511   11.4295   -6.0997 H   0  0  0  0  0  0  0  0  0  0  0  0
    1.0182   15.0376   -3.2803 H   0  0  0  0  0  0  0  0  0  0  0  0
    2.0553   14.3520   -4.5768 H   0  0  0  0  0  0  0  0  0  0  0  0
    0.2879   14.0314   -4.5768 H   0  0  0  0  0  0  0  0  0  0  0  0
    1.7659   13.7352   -1.1054 H   0  0  0  0  0  0  0  0  0  0  0  0
    0.0377   13.8800   -1.7584 H   0  0  0  0  0  0  0  0  0  0  0  0
    1.3269   11.4638   -0.4593 H   0  0  0  0  0  0  0  0  0  0  0  0
   -0.0363   12.4808    0.1522 H   0  0  0  0  0  0  0  0  0  0  0  0
   -2.2745   12.3943   -0.8719 H   0  0  0  0  0  0  0  0  0  0  0  0
   -1.5023   12.9512   -2.3952 H   0  0  0  0  0  0  0  0  0  0  0  0
   -2.5283   11.4767   -2.3952 H   0  0  0  0  0  0  0  0  0  0  0  0
  1  2  1  0
  2  3  1  0
  3  4  1  0
  4  5  1  0
  5  6  1  0
  6  7  1  0
  7  8  1  0
  7  9  1  0
  2 10  1  0
 10 11  1  0
 11 12  1  0
 12 13  1  0
 13 14  1  1
 13 15  1  0
 15 16  1  0
 16 17  1  0
 17 18  2  0
 18 19  1  0
 19 20  1  0
 20 21  1  0
 21 22  1  0
 22 23  1  0
 22 24  1  0
 24 25  1  0
 24 26  1  0
 19 27  1  0
 27 28  1  6
 27 29  1  0
 29 30  1  0
 30 31  1  0
 31 32  1  6
  7  5  1  0
 31 10  1  0
 31 13  1  0
 27 15  1  0
 24 18  1  0
  1 33  1  0
  1 34  1  0
  1 35  1  0
  2 36  1  6
  3 37  1  0
  3 38  1  0
  4 39  1  0
  4 40  1  0
  5 41  1  1
  8 42  1  0
  8 43  1  0
  8 44  1  0
  9 45  1  0
  9 46  1  0
  9 47  1  0
 10 48  1  1
 11 49  1  0
 11 50  1  0
 12 51  1  0
 12 52  1  0
 14 53  1  0
 14 54  1  0
 14 55  1  0
 15 56  1  6
 16 57  1  0
 16 58  1  0
 17 59  1  0
 19 60  1  1
 20 61  1  0
 20 62  1  0
 21 63  1  0
 21 64  1  0
 22 65  1  1
 23 66  1  0
 25 67  1  0
 25 68  1  0
 25 69  1  0
 26 70  1  0
 26 71  1  0
 26 72  1  0
 28 73  1  0
 28 74  1  0
 28 75  1  0
 29 76  1  0
 29 77  1  0
 30 78  1  0
 30 79  1  0
 32 80  1  0
 32 81  1  0
 32 82  1  0
M  END
>  <meeko>  (8) 
{"is_sidechain": [false], "intermolecular_energy": 2.731, "internal_energy": -0.839}

$$$$
EPH_relaxed_0001_pdb2pqr_Repair_157_r2_0001_out
     RDKit          3D

 82 86  0  0  0  0  0  0  0  0999 V2000
   -2.8820    9.6810    0.3810 C   0  0  0  0  0  0  0  0  0  0  0  0
   -1.4190    9.8580    0.7970 C   0  0  2  0  0  0  0  0  0  0  0  0
   -1.1740   11.2080    1.5010 C   0  0  0  0  0  0  0  0  0  0  0  0
   -0.0080   11.1820    2.4920 C   0  0  0  0  0  0  0  0  0  0  0  0
    0.1700   12.5050    3.1740 C   0  0  2  0  0  0  0  0  0  0  0  0
    0.5970   12.4230    4.5400 O   0  0  0  0  0  0  0  0  0  0  0  0
   -0.7070   12.9830    4.3160 C   0  0  0  0  0  0  0  0  0  0  0  0
   -1.8290   12.1430    4.8420 C   0  0  0  0  0  0  0  0  0  0  0  0
   -0.7880   14.4520    4.5910 C   0  0  0  0  0  0  0  0  0  0  0  0
   -0.5140    9.7370   -0.4240 C   0  0  1  0  0  0  0  0  0  0  0  0
   -1.1370    8.8630   -1.5450 C   0  0  0  0  0  0  0  0  0  0  0  0
   -0.6880    9.4790   -2.8950 C   0  0  0  0  0  0  0  0  0  0  0  0
    0.4340   10.4740   -2.5150 C   0  0  1  0  0  0  0  0  0  0  0  0
    1.7120    9.5920   -2.3500 C   0  0  0  0  0  0  0  0  0  0  0  0
    0.6740   11.6570   -3.5090 C   0  0  2  0  0  0  0  0  0  0  0  0
    1.1220   11.2420   -4.9210 C   0  0  0  0  0  0  0  0  0  0  0  0
    2.5980   11.1460   -5.1200 C   0  0  0  0  0  0  0  0  0  0  0  0
    3.5330   11.6530   -4.2950 C   0  0  0  0  0  0  0  0  0  0  0  0
    3.1350   12.4920   -3.0740 C   0  0  1  0  0  0  0  0  0  0  0  0
    4.0160   13.7670   -3.0120 C   0  0  0  0  0  0  0  0  0  0  0  0
    5.5080   13.4490   -3.0390 C   0  0  0  0  0  0  0  0  0  0  0  0
    5.8750   12.6640   -4.2960 C   0  0  2  0  0  0  0  0  0  0  0  0
    5.6920   13.5090   -5.4360 O   0  0  0  0  0  0  0  0  0  0  0  0
    5.0440   11.3630   -4.4710 C   0  0  0  0  0  0  0  0  0  0  0  0
    5.4680   10.3270   -3.4000 C   0  0  0  0  0  0  0  0  0  0  0  0
    5.4120   10.7420   -5.8450 C   0  0  0  0  0  0  0  0  0  0  0  0
    1.5850   12.8140   -2.9300 C   0  0  1  0  0  0  0  0  0  0  0  0
    1.2320   14.1030   -3.7350 C   0  0  0  0  0  0  0  0  0  0  0  0
    1.2630   13.1310   -1.4220 C   0  0  0  0  0  0  0  0  0  0  0  0
    0.9170   11.9320   -0.5180 C   0  0  0  0  0  0  0  0  0  0  0  0
   -0.1470   11.0440   -1.1700 C   0  0  2  0  0  0  0  0  0  0  0  0
   -1.4510   11.8970   -1.3290 C   0  0  0  0  0  0  0  0  0  0  0  0
   -3.5120    9.6048    1.2795 H   0  0  0  0  0  0  0  0  0  0  0  0
   -3.2003   10.5472   -0.2177 H   0  0  0  0  0  0  0  0  0  0  0  0
   -2.9846    8.7639   -0.2177 H   0  0  0  0  0  0  0  0  0  0  0  0
   -1.1815    9.0618    1.5178 H   0  0  0  0  0  0  0  0  0  0  0  0
   -0.9605   11.9664    0.7333 H   0  0  0  0  0  0  0  0  0  0  0  0
   -2.0815   11.4391    2.0781 H   0  0  0  0  0  0  0  0  0  0  0  0
   -0.2041   10.4123    3.2530 H   0  0  0  0  0  0  0  0  0  0  0  0
    0.9123   10.9581    1.9326 H   0  0  0  0  0  0  0  0  0  0  0  0
    0.4718   12.9777    2.2277 H   0  0  0  0  0  0  0  0  0  0  0  0
   -1.8121   12.1556    5.9418 H   0  0  0  0  0  0  0  0  0  0  0  0
   -2.7879   12.5470    4.4853 H   0  0  0  0  0  0  0  0  0  0  0  0
   -1.7114   11.1091    4.4853 H   0  0  0  0  0  0  0  0  0  0  0  0
   -0.7974   14.6216    5.6778 H   0  0  0  0  0  0  0  0  0  0  0  0
    0.0837   14.9565    4.1487 H   0  0  0  0  0  0  0  0  0  0  0  0
   -1.7099   14.8576    4.1487 H   0  0  0  0  0  0  0  0  0  0  0  0
    0.3817    9.3117    0.0522 H   0  0  0  0  0  0  0  0  0  0  0  0
   -0.7757    7.8273   -1.4626 H   0  0  0  0  0  0  0  0  0  0  0  0
   -2.2340    8.8426   -1.4659 H   0  0  0  0  0  0  0  0  0  0  0  0
   -0.3038    8.6993   -3.5691 H   0  0  0  0  0  0  0  0  0  0  0  0
   -1.5172    9.9682   -3.4270 H   0  0  0  0  0  0  0  0  0  0  0  0
    1.9219    9.4471   -1.2800 H   0  0  0  0  0  0  0  0  0  0  0  0
    1.5470    8.6146   -2.8269 H   0  0  0  0  0  0  0  0  0  0  0  0
    2.5673   10.0930   -2.8269 H   0  0  0  0  0  0  0  0  0  0  0  0
   -0.3365   12.0750   -3.6276 H   0  0  0  0  0  0  0  0  0  0  0  0
    0.6849   10.2567   -5.1402 H   0  0  0  0  0  0  0  0  0  0  0  0
    0.7755   12.0383   -5.5961 H   0  0  0  0  0  0  0  0  0  0  0  0
    2.9517   10.6161   -6.0167 H   0  0  0  0  0  0  0  0  0  0  0  0
    3.3301   11.8607   -2.1946 H   0  0  0  0  0  0  0  0  0  0  0  0
    3.7756   14.4041   -3.8759 H   0  0  0  0  0  0  0  0  0  0  0  0
    3.8002   14.2761   -2.0611 H   0  0  0  0  0  0  0  0  0  0  0  0
    6.0772   14.3902   -3.0231 H   0  0  0  0  0  0  0  0  0  0  0  0
    5.7529   12.8370   -2.1584 H   0  0  0  0  0  0  0  0  0  0  0  0
    6.9254   12.3531   -4.1959 H   0  0  0  0  0  0  0  0  0  0  0  0
    6.1850   14.3310   -5.2760 H   0  0  0  0  0  0  0  0  0  0  0  0
    5.2968   10.7453   -2.3972 H   0  0  0  0  0  0  0  0  0  0  0  0
    4.8729    9.4098   -3.5212 H   0  0  0  0  0  0  0  0  0  0  0  0
    6.5354   10.0902   -3.5212 H   0  0  0  0  0  0  0  0  0  0  0  0
    5.9670    9.8055   -5.6873 H   0  0  0  0  0  0  0  0  0  0  0  0
    4.4922   10.5323   -6.4108 H   0  0  0  0  0  0  0  0  0  0  0  0
    6.0376   11.4481   -6.4108 H   0  0  0  0  0  0  0  0  0  0  0  0
    1.0077   14.9220   -3.0358 H   0  0  0  0  0  0  0  0  0  0  0  0
    2.0860   14.3851   -4.3684 H   0  0  0  0  0  0  0  0  0  0  0  0
    0.3535   13.9107   -4.3684 H   0  0  0  0  0  0  0  0  0  0  0  0
    2.1441   13.6290   -0.9913 H   0  0  0  0  0  0  0  0  0  0  0  0
    0.3512   13.7459   -1.4457 H   0  0  0  0  0  0  0  0  0  0  0  0
    1.8260   11.3371   -0.3455 H   0  0  0  0  0  0  0  0  0  0  0  0
    0.5204   12.3134    0.4345 H   0  0  0  0  0  0  0  0  0  0  0  0
   -1.8444   12.1543   -0.3345 H   0  0  0  0  0  0  0  0  0  0  0  0
   -1.2205   12.8195   -1.8821 H   0  0  0  0  0  0  0  0  0  0  0  0
   -2.2039   11.3163   -1.8821 H   0  0  0  0  0  0  0  0  0  0  0  0
  1  2  1  0
  2  3  1  0
  3  4  1  0
  4  5  1  0
  5  6  1  0
  6  7  1  0
  7  8  1  0
  7  9  1  0
  2 10  1  0
 10 11  1  0
 11 12  1  0
 12 13  1  0
 13 14  1  1
 13 15  1  0
 15 16  1  0
 16 17  1  0
 17 18  2  0
 18 19  1  0
 19 20  1  0
 20 21  1  0
 21 22  1  0
 22 23  1  0
 22 24  1  0
 24 25  1  0
 24 26  1  0
 19 27  1  0
 27 28  1  6
 27 29  1  0
 29 30  1  0
 30 31  1  0
 31 32  1  6
  7  5  1  0
 31 10  1  0
 31 13  1  0
 27 15  1  0
 24 18  1  0
  1 33  1  0
  1 34  1  0
  1 35  1  0
  2 36  1  1
  3 37  1  0
  3 38  1  0
  4 39  1  0
  4 40  1  0
  5 41  1  6
  8 42  1  0
  8 43  1  0
  8 44  1  0
  9 45  1  0
  9 46  1  0
  9 47  1  0
 10 48  1  1
 11 49  1  0
 11 50  1  0
 12 51  1  0
 12 52  1  0
 14 53  1  0
 14 54  1  0
 14 55  1  0
 15 56  1  6
 16 57  1  0
 16 58  1  0
 17 59  1  0
 19 60  1  1
 20 61  1  0
 20 62  1  0
 21 63  1  0
 21 64  1  0
 22 65  1  1
 23 66  1  0
 25 67  1  0
 25 68  1  0
 25 69  1  0
 26 70  1  0
 26 71  1  0
 26 72  1  0
 28 73  1  0
 28 74  1  0
 28 75  1  0
 29 76  1  0
 29 77  1  0
 30 78  1  0
 30 79  1  0
 32 80  1  0
 32 81  1  0
 32 82  1  0
M  END
>  <meeko>  (9) 
{"is_sidechain": [false], "intermolecular_energy": 2.731, "internal_energy": -0.839}

$$$$
EPH_relaxed_0001_pdb2pqr_Repair_157_r2_0001_out
     RDKit          3D

 82 86  0  0  0  0  0  0  0  0999 V2000
    2.8320   13.7490   -2.7440 C   0  0  0  0  0  0  0  0  0  0  0  0
    1.4110   13.7420   -3.3160 C   0  0  2  0  0  0  0  0  0  0  0  0
    0.4550   14.6400   -2.5050 C   0  0  0  0  0  0  0  0  0  0  0  0
    0.7870   16.1320   -2.5940 C   0  0  0  0  0  0  0  0  0  0  0  0
    1.0210   16.7290   -1.2400 C   0  0  2  0  0  0  0  0  0  0  0  0
   -0.1640   16.9170   -0.4550 O   0  0  0  0  0  0  0  0  0  0  0  0
    0.5370   18.1100   -0.8400 C   0  0  0  0  0  0  0  0  0  0  0  0
   -0.2190   18.9790   -1.7950 C   0  0  0  0  0  0  0  0  0  0  0  0
    1.2160   18.8040    0.3000 C   0  0  0  0  0  0  0  0  0  0  0  0
    0.8760   12.3160   -3.3600 C   0  0  1  0  0  0  0  0  0  0  0  0
    1.9950   11.2640   -3.5810 C   0  0  0  0  0  0  0  0  0  0  0  0
    1.5900   10.0040   -2.7730 C   0  0  0  0  0  0  0  0  0  0  0  0
    0.1110   10.2450   -2.3910 C   0  0  1  0  0  0  0  0  0  0  0  0
   -0.7020    9.8460   -3.6620 C   0  0  0  0  0  0  0  0  0  0  0  0
   -0.4040    9.4970   -1.1180 C   0  0  2  0  0  0  0  0  0  0  0  0
   -0.3760    7.9610   -1.2070 C   0  0  0  0  0  0  0  0  0  0  0  0
   -1.6210    7.3310   -1.7370 C   0  0  0  0  0  0  0  0  0  0  0  0
   -2.8150    7.9390   -1.8590 C   0  0  0  0  0  0  0  0  0  0  0  0
   -3.0250    9.3710   -1.3500 C   0  0  1  0  0  0  0  0  0  0  0  0
   -4.3450    9.4440   -0.5380 C   0  0  0  0  0  0  0  0  0  0  0  0
   -5.5440    8.9220   -1.3240 C   0  0  0  0  0  0  0  0  0  0  0  0
   -5.3220    7.4770   -1.7620 C   0  0  2  0  0  0  0  0  0  0  0  0
   -5.2930    6.6420   -0.6000 O   0  0  0  0  0  0  0  0  0  0  0  0
   -4.0160    7.2790   -2.5800 C   0  0  0  0  0  0  0  0  0  0  0  0
   -4.1690    7.9390   -3.9730 C   0  0  0  0  0  0  0  0  0  0  0  0
   -3.8400    5.7580   -2.8380 C   0  0  0  0  0  0  0  0  0  0  0  0
   -1.7960   10.0200   -0.5780 C   0  0  1  0  0  0  0  0  0  0  0  0
   -1.8590    9.6410    0.9340 C   0  0  0  0  0  0  0  0  0  0  0  0
   -1.9150   11.5880   -0.6480 C   0  0  0  0  0  0  0  0  0  0  0  0
   -1.2820   12.2790   -1.8710 C   0  0  0  0  0  0  0  0  0  0  0  0
    0.1510   11.7890   -2.0970 C   0  0  2  0  0  0  0  0  0  0  0  0
    0.9990   12.1960   -0.8430 C   0  0  0  0  0  0  0  0  0  0  0  0
    2.7849   13.7488   -1.6450 H   0  0  0  0  0  0  0  0  0  0  0  0
    3.3702   12.8535   -3.0881 H   0  0  0  0  0  0  0  0  0  0  0  0
    3.3613   14.6498   -3.0881 H   0  0  0  0  0  0  0  0  0  0  0  0
    1.4619   14.1509   -4.3359 H   0  0  0  0  0  0  0  0  0  0  0  0
   -0.5671   14.4887   -2.8823 H   0  0  0  0  0  0  0  0  0  0  0  0
    0.5603   14.3500   -1.4492 H   0  0  0  0  0  0  0  0  0  0  0  0
    1.6950   16.2596   -3.2017 H   0  0  0  0  0  0  0  0  0  0  0  0
   -0.0698   16.6473   -3.0527 H   0  0  0  0  0  0  0  0  0  0  0  0
    2.0053   16.2428   -1.1700 H   0  0  0  0  0  0  0  0  0  0  0  0
   -0.8387   19.6914   -1.2307 H   0  0  0  0  0  0  0  0  0  0  0  0
    0.4906   19.5318   -2.4282 H   0  0  0  0  0  0  0  0  0  0  0  0
   -0.8646   18.3528   -2.4282 H   0  0  0  0  0  0  0  0  0  0  0  0
    0.8301   18.4096    1.2516 H   0  0  0  0  0  0  0  0  0  0  0  0
    2.3003   18.6280    0.2429 H   0  0  0  0  0  0  0  0  0  0  0  0
    1.0164   19.8842    0.2429 H   0  0  0  0  0  0  0  0  0  0  0  0
    0.1613   12.4135   -4.1905 H   0  0  0  0  0  0  0  0  0  0  0  0
    2.0780   11.0181   -4.6499 H   0  0  0  0  0  0  0  0  0  0  0  0
    2.9705   11.6493   -3.2494 H   0  0  0  0  0  0  0  0  0  0  0  0
    1.6893    9.0986   -3.3897 H   0  0  0  0  0  0  0  0  0  0  0  0
    2.2292    9.8505   -1.8910 H   0  0  0  0  0  0  0  0  0  0  0  0
   -1.6512    9.3801   -3.3588 H   0  0  0  0  0  0  0  0  0  0  0  0
   -0.9096   10.7446   -4.2615 H   0  0  0  0  0  0  0  0  0  0  0  0
   -0.1182    9.1320   -4.2615 H   0  0  0  0  0  0  0  0  0  0  0  0
    0.3515    9.7656   -0.3650 H   0  0  0  0  0  0  0  0  0  0  0  0
    0.4572    7.6737   -1.8652 H   0  0  0  0  0  0  0  0  0  0  0  0
   -0.2667    7.5980   -0.1744 H   0  0  0  0  0  0  0  0  0  0  0  0
   -1.5569    6.2799   -2.0550 H   0  0  0  0  0  0  0  0  0  0  0  0
   -3.1032   10.0038   -2.2463 H   0  0  0  0  0  0  0  0  0  0  0  0
   -4.2316    8.8405    0.3746 H   0  0  0  0  0  0  0  0  0  0  0  0
   -4.5345   10.5016   -0.3025 H   0  0  0  0  0  0  0  0  0  0  0  0
   -6.4404    8.9718   -0.6884 H   0  0  0  0  0  0  0  0  0  0  0  0
   -5.6736    9.5448   -2.2214 H   0  0  0  0  0  0  0  0  0  0  0  0
   -6.1537    7.2027   -2.4275 H   0  0  0  0  0  0  0  0  0  0  0  0
   -5.9300    5.9210   -0.7400 H   0  0  0  0  0  0  0  0  0  0  0  0
   -4.4158    9.0038   -3.8491 H   0  0  0  0  0  0  0  0  0  0  0  0
   -3.2250    7.8438   -4.5295 H   0  0  0  0  0  0  0  0  0  0  0  0
   -4.9749    7.4381   -4.5295 H   0  0  0  0  0  0  0  0  0  0  0  0
   -3.7786    5.2277   -1.8762 H   0  0  0  0  0  0  0  0  0  0  0  0
   -4.7005    5.3812   -3.4103 H   0  0  0  0  0  0  0  0  0  0  0  0
   -2.9162    5.5877   -3.4103 H   0  0  0  0  0  0  0  0  0  0  0  0
   -1.7090   10.5435    1.5448 H   0  0  0  0  0  0  0  0  0  0  0  0
   -2.8422    9.2034    1.1617 H   0  0  0  0  0  0  0  0  0  0  0  0
   -1.0702    8.9089    1.1617 H   0  0  0  0  0  0  0  0  0  0  0  0
   -2.9854   11.8412   -0.6398 H   0  0  0  0  0  0  0  0  0  0  0  0
   -1.3469   11.9586    0.2180 H   0  0  0  0  0  0  0  0  0  0  0  0
   -1.8843   12.0535   -2.7634 H   0  0  0  0  0  0  0  0  0  0  0  0
   -1.2569   13.3632   -1.6871 H   0  0  0  0  0  0  0  0  0  0  0  0
    0.4494   11.9322    0.0726 H   0  0  0  0  0  0  0  0  0  0  0  0
    1.9600   11.6610   -0.8608 H   0  0  0  0  0  0  0  0  0  0  0  0
    1.1827   13.2804   -0.8608 H   0  0  0  0  0  0  0  0  0  0  0  0
  1  2  1  0
  2  3  1  0
  3  4  1  0
  4  5  1  0
  5  6  1  0
  6  7  1  0
  7  8  1  0
  7  9  1  0
  2 10  1  0
 10 11  1  0
 11 12  1  0
 12 13  1  0
 13 14  1  6
 13 15  1  0
 15 16  1  0
 16 17  1  0
 17 18  2  0
 18 19  1  0
 19 20  1  0
 20 21  1  0
 21 22  1  0
 22 23  1  0
 22 24  1  0
 24 25  1  0
 24 26  1  0
 19 27  1  0
 27 28  1  1
 27 29  1  0
 29 30  1  0
 30 31  1  0
 31 32  1  1
  7  5  1  0
 31 10  1  0
 31 13  1  0
 27 15  1  0
 24 18  1  0
  1 33  1  0
  1 34  1  0
  1 35  1  0
  2 36  1  6
  3 37  1  0
  3 38  1  0
  4 39  1  0
  4 40  1  0
  5 41  1  1
  8 42  1  0
  8 43  1  0
  8 44  1  0
  9 45  1  0
  9 46  1  0
  9 47  1  0
 10 48  1  6
 11 49  1  0
 11 50  1  0
 12 51  1  0
 12 52  1  0
 14 53  1  0
 14 54  1  0
 14 55  1  0
 15 56  1  1
 16 57  1  0
 16 58  1  0
 17 59  1  0
 19 60  1  6
 20 61  1  0
 20 62  1  0
 21 63  1  0
 21 64  1  0
 22 65  1  6
 23 66  1  0
 25 67  1  0
 25 68  1  0
 25 69  1  0
 26 70  1  0
 26 71  1  0
 26 72  1  0
 28 73  1  0
 28 74  1  0
 28 75  1  0
 29 76  1  0
 29 77  1  0
 30 78  1  0
 30 79  1  0
 32 80  1  0
 32 81  1  0
 32 82  1  0
M  END
>  <meeko>  (10) 
{"is_sidechain": [false], "intermolecular_energy": 2.731, "internal_energy": -0.839}

$$$$
EPH_relaxed_0001_pdb2pqr_Repair_157_r2_0001_out
     RDKit          3D

 82 86  0  0  0  0  0  0  0  0999 V2000
    3.2440   10.2320   -3.5360 C   0  0  0  0  0  0  0  0  0  0  0  0
    2.6270   11.0740   -4.6570 C   0  0  2  0  0  0  0  0  0  0  0  0
    3.6990   11.7950   -5.4980 C   0  0  0  0  0  0  0  0  0  0  0  0
    4.8200   12.4200   -4.6630 C   0  0  0  0  0  0  0  0  0  0  0  0
    6.1210   11.7000   -4.8530 C   0  0  2  0  0  0  0  0  0  0  0  0
    6.0030   10.2770   -4.9840 O   0  0  0  0  0  0  0  0  0  0  0  0
    6.7090   10.7500   -3.8250 C   0  0  0  0  0  0  0  0  0  0  0  0
    6.0100   10.4710   -2.5320 C   0  0  0  0  0  0  0  0  0  0  0  0
    8.1800   10.4780   -3.8620 C   0  0  0  0  0  0  0  0  0  0  0  0
    1.6560   12.0910   -4.0690 C   0  0  1  0  0  0  0  0  0  0  0  0
    0.1940   11.5710   -4.0370 C   0  0  0  0  0  0  0  0  0  0  0  0
   -0.4590   12.1520   -2.7560 C   0  0  0  0  0  0  0  0  0  0  0  0
    0.5280   13.2410   -2.2740 C   0  0  1  0  0  0  0  0  0  0  0  0
    0.2090   14.4890   -3.1550 C   0  0  0  0  0  0  0  0  0  0  0  0
    0.4870   13.5840   -0.7500 C   0  0  2  0  0  0  0  0  0  0  0  0
   -0.8470   14.1620   -0.2460 C   0  0  0  0  0  0  0  0  0  0  0  0
   -0.9580   15.6500   -0.2980 C   0  0  0  0  0  0  0  0  0  0  0  0
    0.0690   16.5050   -0.4600 C   0  0  0  0  0  0  0  0  0  0  0  0
    1.5160   15.9980   -0.5140 C   0  0  1  0  0  0  0  0  0  0  0  0
    2.4080   16.8800    0.3990 C   0  0  0  0  0  0  0  0  0  0  0  0
    2.2970   18.3650    0.0670 C   0  0  0  0  0  0  0  0  0  0  0  0
    0.8530   18.8450    0.1880 C   0  0  2  0  0  0  0  0  0  0  0  0
    0.4590   18.7790    1.5620 O   0  0  0  0  0  0  0  0  0  0  0  0
   -0.1400   18.0240   -0.6810 C   0  0  0  0  0  0  0  0  0  0  0  0
    0.0990   18.3340   -2.1790 C   0  0  0  0  0  0  0  0  0  0  0  0
   -1.5770   18.5170   -0.3590 C   0  0  0  0  0  0  0  0  0  0  0  0
    1.7160   14.4440   -0.2460 C   0  0  1  0  0  0  0  0  0  0  0  0
    1.8460   14.1810    1.2860 C   0  0  0  0  0  0  0  0  0  0  0  0
    3.0750   13.9820   -0.8930 C   0  0  0  0  0  0  0  0  0  0  0  0
    3.0280   13.5410   -2.3680 C   0  0  0  0  0  0  0  0  0  0  0  0
    1.8950   12.5380   -2.6050 C   0  0  2  0  0  0  0  0  0  0  0  0
    2.2000   11.2620   -1.7480 C   0  0  0  0  0  0  0  0  0  0  0  0
    2.9431   10.6427   -2.5609 H   0  0  0  0  0  0  0  0  0  0  0  0
    2.8915    9.1935   -3.6210 H   0  0  0  0  0  0  0  0  0  0  0  0
    4.3405   10.2552   -3.6210 H   0  0  0  0  0  0  0  0  0  0  0  0
    2.0871   10.3886   -5.3269 H   0  0  0  0  0  0  0  0  0  0  0  0
    4.1464   11.0656   -6.1892 H   0  0  0  0  0  0  0  0  0  0  0  0
    3.1939   12.6180   -6.0248 H   0  0  0  0  0  0  0  0  0  0  0  0
    4.9464   13.4701   -4.9652 H   0  0  0  0  0  0  0  0  0  0  0  0
    4.5391   12.3459   -3.6021 H   0  0  0  0  0  0  0  0  0  0  0  0
    6.5463   12.5598   -5.3914 H   0  0  0  0  0  0  0  0  0  0  0  0
    6.6711   10.7349   -1.6934 H   0  0  0  0  0  0  0  0  0  0  0  0
    5.0895   11.0706   -2.4760 H   0  0  0  0  0  0  0  0  0  0  0  0
    5.7554    9.4023   -2.4760 H   0  0  0  0  0  0  0  0  0  0  0  0
    8.5657   10.4067   -2.8343 H   0  0  0  0  0  0  0  0  0  0  0  0
    8.3645    9.5305   -4.3895 H   0  0  0  0  0  0  0  0  0  0  0  0
    8.6911   11.2969   -4.3895 H   0  0  0  0  0  0  0  0  0  0  0  0
    1.8338   12.9336   -4.7534 H   0  0  0  0  0  0  0  0  0  0  0  0
   -0.3501   11.9149   -4.9290 H   0  0  0  0  0  0  0  0  0  0  0  0
    0.1657   10.4714   -4.0311 H   0  0  0  0  0  0  0  0  0  0  0  0
   -1.4406   12.5920   -2.9859 H   0  0  0  0  0  0  0  0  0  0  0  0
   -0.6353   11.3811   -1.9914 H   0  0  0  0  0  0  0  0  0  0  0  0
   -0.0109   15.3495   -2.5060 H   0  0  0  0  0  0  0  0  0  0  0  0
    1.0767   14.7210   -3.7900 H   0  0  0  0  0  0  0  0  0  0  0  0
   -0.6636   14.2762   -3.7900 H   0  0  0  0  0  0  0  0  0  0  0  0
    0.5778   12.5921   -0.2832 H   0  0  0  0  0  0  0  0  0  0  0  0
   -1.6547   13.7393   -0.8616 H   0  0  0  0  0  0  0  0  0  0  0  0
   -0.9143   13.8890    0.8175 H   0  0  0  0  0  0  0  0  0  0  0  0
   -1.9635   16.0841   -0.1953 H   0  0  0  0  0  0  0  0  0  0  0  0
    1.8364   16.1020   -1.5612 H   0  0  0  0  0  0  0  0  0  0  0  0
    2.1011   16.7285    1.4444 H   0  0  0  0  0  0  0  0  0  0  0  0
    3.4533   16.5787    0.2362 H   0  0  0  0  0  0  0  0  0  0  0  0
    2.9263   18.9377    0.7642 H   0  0  0  0  0  0  0  0  0  0  0  0
    2.6323   18.5189   -0.9693 H   0  0  0  0  0  0  0  0  0  0  0  0
    0.8162   19.8787   -0.1863 H   0  0  0  0  0  0  0  0  0  0  0  0
   -0.3930   19.2390    1.6460 H   0  0  0  0  0  0  0  0  0  0  0  0
    0.7683   19.2021   -2.2716 H   0  0  0  0  0  0  0  0  0  0  0  0
    0.5606   17.4617   -2.6649 H   0  0  0  0  0  0  0  0  0  0  0  0
   -0.8620   18.5585   -2.6649 H   0  0  0  0  0  0  0  0  0  0  0  0
   -1.7129   18.5636    0.7316 H   0  0  0  0  0  0  0  0  0  0  0  0
   -1.7265   19.5178   -0.7902 H   0  0  0  0  0  0  0  0  0  0  0  0
   -2.3094   17.8188   -0.7902 H   0  0  0  0  0  0  0  0  0  0  0  0
    1.4252   15.0323    1.8412 H   0  0  0  0  0  0  0  0  0  0  0  0
    1.2971   13.2646    1.5486 H   0  0  0  0  0  0  0  0  0  0  0  0
    2.9074   14.0606    1.5486 H   0  0  0  0  0  0  0  0  0  0  0  0
    3.7811   14.8222   -0.8193 H   0  0  0  0  0  0  0  0  0  0  0  0
    3.3689   13.0820   -0.3330 H   0  0  0  0  0  0  0  0  0  0  0  0
    2.8649   14.4245   -3.0026 H   0  0  0  0  0  0  0  0  0  0  0  0
    3.9831   13.0568   -2.6197 H   0  0  0  0  0  0  0  0  0  0  0  0
    2.1395   11.5151   -0.6792 H   0  0  0  0  0  0  0  0  0  0  0  0
    1.4638   10.4788   -1.9816 H   0  0  0  0  0  0  0  0  0  0  0  0
    3.2108   10.8964   -1.9816 H   0  0  0  0  0  0  0  0  0  0  0  0
  1  2  1  0
  2  3  1  0
  3  4  1  0
  4  5  1  0
  5  6  1  0
  6  7  1  0
  7  8  1  0
  7  9  1  0
  2 10  1  0
 10 11  1  0
 11 12  1  0
 12 13  1  0
 13 14  1  6
 13 15  1  0
 15 16  1  0
 16 17  1  0
 17 18  2  0
 18 19  1  0
 19 20  1  0
 20 21  1  0
 21 22  1  0
 22 23  1  0
 22 24  1  0
 24 25  1  0
 24 26  1  0
 19 27  1  0
 27 28  1  1
 27 29  1  0
 29 30  1  0
 30 31  1  0
 31 32  1  1
  7  5  1  0
 31 10  1  0
 31 13  1  0
 27 15  1  0
 24 18  1  0
  1 33  1  0
  1 34  1  0
  1 35  1  0
  2 36  1  6
  3 37  1  0
  3 38  1  0
  4 39  1  0
  4 40  1  0
  5 41  1  6
  8 42  1  0
  8 43  1  0
  8 44  1  0
  9 45  1  0
  9 46  1  0
  9 47  1  0
 10 48  1  6
 11 49  1  0
 11 50  1  0
 12 51  1  0
 12 52  1  0
 14 53  1  0
 14 54  1  0
 14 55  1  0
 15 56  1  1
 16 57  1  0
 16 58  1  0
 17 59  1  0
 19 60  1  6
 20 61  1  0
 20 62  1  0
 21 63  1  0
 21 64  1  0
 22 65  1  6
 23 66  1  0
 25 67  1  0
 25 68  1  0
 25 69  1  0
 26 70  1  0
 26 71  1  0
 26 72  1  0
 28 73  1  0
 28 74  1  0
 28 75  1  0
 29 76  1  0
 29 77  1  0
 30 78  1  0
 30 79  1  0
 32 80  1  0
 32 81  1  0
 32 82  1  0
M  END
>  <meeko>  (11) 
{"is_sidechain": [false], "intermolecular_energy": 2.731, "internal_energy": -0.839}

$$$$
EPH_relaxed_0001_pdb2pqr_Repair_157_r2_0001_out
     RDKit          3D

 82 86  0  0  0  0  0  0  0  0999 V2000
    3.5400   17.1490    1.1080 C   0  0  0  0  0  0  0  0  0  0  0  0
    2.3750   17.4540    0.1610 C   0  0  2  0  0  0  0  0  0  0  0  0
    1.6460   18.7580    0.5390 C   0  0  0  0  0  0  0  0  0  0  0  0
    1.6110   19.7930   -0.5890 C   0  0  0  0  0  0  0  0  0  0  0  0
    0.2070   20.1940   -0.9300 C   0  0  2  0  0  0  0  0  0  0  0  0
   -0.7980   19.2500   -0.5350 O   0  0  0  0  0  0  0  0  0  0  0  0
   -0.6480   19.4630   -1.9490 C   0  0  0  0  0  0  0  0  0  0  0  0
   -0.1290   18.2710   -2.6910 C   0  0  0  0  0  0  0  0  0  0  0  0
   -1.7960   20.1920   -2.5740 C   0  0  0  0  0  0  0  0  0  0  0  0
    1.3920   16.2890    0.1560 C   0  0  1  0  0  0  0  0  0  0  0  0
   -0.0870   16.7560    0.2010 C   0  0  0  0  0  0  0  0  0  0  0  0
   -0.9010   15.7490   -0.6510 C   0  0  0  0  0  0  0  0  0  0  0  0
    0.0650   14.5630   -0.8810 C   0  0  1  0  0  0  0  0  0  0  0  0
   -0.0200   13.7170    0.4280 C   0  0  0  0  0  0  0  0  0  0  0  0
   -0.2020   13.6900   -2.1500 C   0  0  2  0  0  0  0  0  0  0  0  0
   -1.5580   12.9640   -2.1700 C   0  0  0  0  0  0  0  0  0  0  0  0
   -1.5580   11.5950   -1.5730 C   0  0  0  0  0  0  0  0  0  0  0  0
   -0.4630   10.8610   -1.3020 C   0  0  0  0  0  0  0  0  0  0  0  0
    0.9350   11.3580   -1.6890 C   0  0  1  0  0  0  0  0  0  0  0  0
    1.7240   10.2090   -2.3710 C   0  0  0  0  0  0  0  0  0  0  0  0
    1.7700    8.9450   -1.5180 C   0  0  0  0  0  0  0  0  0  0  0  0
    0.3610    8.4480   -1.2020 C   0  0  2  0  0  0  0  0  0  0  0  0
   -0.2560    8.0110   -2.4160 O   0  0  0  0  0  0  0  0  0  0  0  0
   -0.5300    9.5250   -0.5210 C   0  0  0  0  0  0  0  0  0  0  0  0
   -0.0280    9.7790    0.9220 C   0  0  0  0  0  0  0  0  0  0  0  0
   -1.9630    8.9430   -0.3860 C   0  0  0  0  0  0  0  0  0  0  0  0
    0.9840   12.7100   -2.5240 C   0  0  1  0  0  0  0  0  0  0  0  0
    0.8430   12.4010   -4.0460 C   0  0  0  0  0  0  0  0  0  0  0  0
    2.3960   13.3800   -2.3360 C   0  0  0  0  0  0  0  0  0  0  0  0
    2.5610   14.3260   -1.1300 C   0  0  0  0  0  0  0  0  0  0  0  0
    1.4170   15.3420   -1.0700 C   0  0  2  0  0  0  0  0  0  0  0  0
    1.4910   16.2230   -2.3640 C   0  0  0  0  0  0  0  0  0  0  0  0
    3.1987   17.2384    2.1499 H   0  0  0  0  0  0  0  0  0  0  0  0
    3.9014   16.1260    0.9270 H   0  0  0  0  0  0  0  0  0  0  0  0
    4.3564   17.8637    0.9270 H   0  0  0  0  0  0  0  0  0  0  0  0
    2.7939   17.5913   -0.8468 H   0  0  0  0  0  0  0  0  0  0  0  0
    0.6105   18.5096    0.8146 H   0  0  0  0  0  0  0  0  0  0  0  0
    2.2053   19.2091    1.3719 H   0  0  0  0  0  0  0  0  0  0  0  0
    2.1696   20.6858   -0.2712 H   0  0  0  0  0  0  0  0  0  0  0  0
    2.0655   19.3414   -1.4831 H   0  0  0  0  0  0  0  0  0  0  0  0
    0.4548   21.2581   -0.8025 H   0  0  0  0  0  0  0  0  0  0  0  0
    0.2033   17.5077   -1.9720 H   0  0  0  0  0  0  0  0  0  0  0  0
   -0.9280   17.8561   -3.3231 H   0  0  0  0  0  0  0  0  0  0  0  0
    0.7190   18.5732   -3.3231 H   0  0  0  0  0  0  0  0  0  0  0  0
   -2.4428   20.6028   -1.7848 H   0  0  0  0  0  0  0  0  0  0  0  0
   -1.4130   21.0127   -3.1983 H   0  0  0  0  0  0  0  0  0  0  0  0
   -2.3759   19.4963   -3.1983 H   0  0  0  0  0  0  0  0  0  0  0  0
    1.7370   15.7528    1.0524 H   0  0  0  0  0  0  0  0  0  0  0  0
   -0.4525   16.7565    1.2385 H   0  0  0  0  0  0  0  0  0  0  0  0
   -0.1900   17.7785   -0.1912 H   0  0  0  0  0  0  0  0  0  0  0  0
   -1.7994   15.4187   -0.1090 H   0  0  0  0  0  0  0  0  0  0  0  0
   -1.2528   16.1899   -1.5954 H   0  0  0  0  0  0  0  0  0  0  0  0
    0.0470   14.3836    1.3004 H   0  0  0  0  0  0  0  0  0  0  0  0
   -0.9771   13.1754    0.4530 H   0  0  0  0  0  0  0  0  0  0  0  0
    0.8102   12.9958    0.4530 H   0  0  0  0  0  0  0  0  0  0  0  0
   -0.2564   14.4452   -2.9479 H   0  0  0  0  0  0  0  0  0  0  0  0
   -2.2804   13.5780   -1.6122 H   0  0  0  0  0  0  0  0  0  0  0  0
   -1.8173   12.8331   -3.2310 H   0  0  0  0  0  0  0  0  0  0  0  0
   -2.5350   11.1492   -1.3348 H   0  0  0  0  0  0  0  0  0  0  0  0
    1.4275   11.6412   -0.7471 H   0  0  0  0  0  0  0  0  0  0  0  0
    1.2408    9.9700   -3.3299 H   0  0  0  0  0  0  0  0  0  0  0  0
    2.7589   10.5533   -2.5142 H   0  0  0  0  0  0  0  0  0  0  0  0
    2.3139    8.1610   -2.0653 H   0  0  0  0  0  0  0  0  0  0  0  0
    2.2803    9.1784   -0.5719 H   0  0  0  0  0  0  0  0  0  0  0  0
    0.4561    7.6200   -0.4841 H   0  0  0  0  0  0  0  0  0  0  0  0
    0.4520    7.7550   -3.0310 H   0  0  0  0  0  0  0  0  0  0  0  0
   -0.7713    9.4029    1.6403 H   0  0  0  0  0  0  0  0  0  0  0  0
    0.9274    9.2559    1.0753 H   0  0  0  0  0  0  0  0  0  0  0  0
    0.1164   10.8587    1.0753 H   0  0  0  0  0  0  0  0  0  0  0  0
   -2.2179    8.8395    0.6790 H   0  0  0  0  0  0  0  0  0  0  0  0
   -2.6812    9.6207   -0.8707 H   0  0  0  0  0  0  0  0  0  0  0  0
   -2.0052    7.9564   -0.8707 H   0  0  0  0  0  0  0  0  0  0  0  0
    0.3897   11.4075   -4.1780 H   0  0  0  0  0  0  0  0  0  0  0  0
    0.2028   13.1616   -4.5168 H   0  0  0  0  0  0  0  0  0  0  0  0
    1.8370   12.4159   -4.5168 H   0  0  0  0  0  0  0  0  0  0  0  0
    3.1359   12.5730   -2.2297 H   0  0  0  0  0  0  0  0  0  0  0  0
    2.5330   14.0168   -3.2224 H   0  0  0  0  0  0  0  0  0  0  0  0
    2.5635   13.7318   -0.2043 H   0  0  0  0  0  0  0  0  0  0  0  0
    3.5096   14.8720   -1.2396 H   0  0  0  0  0  0  0  0  0  0  0  0
    1.5800   17.2824   -2.0817 H   0  0  0  0  0  0  0  0  0  0  0  0
    2.3675   15.9273   -2.9593 H   0  0  0  0  0  0  0  0  0  0  0  0
    0.5775   16.0776   -2.9593 H   0  0  0  0  0  0  0  0  0  0  0  0
  1  2  1  0
  2  3  1  0
  3  4  1  0
  4  5  1  0
  5  6  1  0
  6  7  1  0
  7  8  1  0
  7  9  1  0
  2 10  1  0
 10 11  1  0
 11 12  1  0
 12 13  1  0
 13 14  1  1
 13 15  1  0
 15 16  1  0
 16 17  1  0
 17 18  2  0
 18 19  1  0
 19 20  1  0
 20 21  1  0
 21 22  1  0
 22 23  1  0
 22 24  1  0
 24 25  1  0
 24 26  1  0
 19 27  1  0
 27 28  1  6
 27 29  1  0
 29 30  1  0
 30 31  1  0
 31 32  1  6
  7  5  1  0
 31 10  1  0
 31 13  1  0
 27 15  1  0
 24 18  1  0
  1 33  1  0
  1 34  1  0
  1 35  1  0
  2 36  1  6
  3 37  1  0
  3 38  1  0
  4 39  1  0
  4 40  1  0
  5 41  1  1
  8 42  1  0
  8 43  1  0
  8 44  1  0
  9 45  1  0
  9 46  1  0
  9 47  1  0
 10 48  1  1
 11 49  1  0
 11 50  1  0
 12 51  1  0
 12 52  1  0
 14 53  1  0
 14 54  1  0
 14 55  1  0
 15 56  1  6
 16 57  1  0
 16 58  1  0
 17 59  1  0
 19 60  1  1
 20 61  1  0
 20 62  1  0
 21 63  1  0
 21 64  1  0
 22 65  1  1
 23 66  1  0
 25 67  1  0
 25 68  1  0
 25 69  1  0
 26 70  1  0
 26 71  1  0
 26 72  1  0
 28 73  1  0
 28 74  1  0
 28 75  1  0
 29 76  1  0
 29 77  1  0
 30 78  1  0
 30 79  1  0
 32 80  1  0
 32 81  1  0
 32 82  1  0
M  END
>  <meeko>  (12) 
{"is_sidechain": [false], "intermolecular_energy": 2.731, "internal_energy": -0.839}

$$$$
EPH_relaxed_0001_pdb2pqr_Repair_157_r2_0001_out
     RDKit          3D

 82 86  0  0  0  0  0  0  0  0999 V2000
    0.0260    8.9130    0.1050 C   0  0  0  0  0  0  0  0  0  0  0  0
   -0.9080    9.7190    1.0120 C   0  0  2  0  0  0  0  0  0  0  0  0
   -2.3550    9.7430    0.4810 C   0  0  0  0  0  0  0  0  0  0  0  0
   -2.6270    8.7060   -0.6120 C   0  0  0  0  0  0  0  0  0  0  0  0
   -2.1740    9.1870   -1.9580 C   0  0  2  0  0  0  0  0  0  0  0  0
   -2.2200    8.1980   -2.9940 O   0  0  0  0  0  0  0  0  0  0  0  0
   -0.9160    8.6890   -2.6440 C   0  0  0  0  0  0  0  0  0  0  0  0
   -0.0310    7.6660   -2.0050 C   0  0  0  0  0  0  0  0  0  0  0  0
   -0.2910    9.5460   -3.7010 C   0  0  0  0  0  0  0  0  0  0  0  0
   -0.3840   11.1420    1.1630 C   0  0  1  0  0  0  0  0  0  0  0  0
    0.6190   11.2890    2.3380 C   0  0  0  0  0  0  0  0  0  0  0  0
    1.6730   12.3370    1.8980 C   0  0  0  0  0  0  0  0  0  0  0  0
    1.0640   12.9980    0.6390 C   0  0  1  0  0  0  0  0  0  0  0  0
    0.0560   14.0560    1.1890 C   0  0  0  0  0  0  0  0  0  0  0  0
    2.0770   13.6350   -0.3670 C   0  0  2  0  0  0  0  0  0  0  0  0
    2.9090   14.8010    0.1960 C   0  0  0  0  0  0  0  0  0  0  0  0
    2.3110   16.1560    0.0170 C   0  0  0  0  0  0  0  0  0  0  0  0
    1.2980   16.4600   -0.8160 C   0  0  0  0  0  0  0  0  0  0  0  0
    0.7130   15.4040   -1.7620 C   0  0  1  0  0  0  0  0  0  0  0  0
    0.5600   16.0090   -3.1830 C   0  0  0  0  0  0  0  0  0  0  0  0
   -0.2470   17.3040   -3.1830 C   0  0  0  0  0  0  0  0  0  0  0  0
    0.3990   18.3490   -2.2770 C   0  0  2  0  0  0  0  0  0  0  0  0
    1.6550   18.7360   -2.8420 O   0  0  0  0  0  0  0  0  0  0  0  0
    0.6130   17.8490   -0.8210 C   0  0  0  0  0  0  0  0  0  0  0  0
   -0.7570   17.7170   -0.1090 C   0  0  0  0  0  0  0  0  0  0  0  0
    1.3980   18.9440   -0.0500 C   0  0  0  0  0  0  0  0  0  0  0  0
    1.4530   13.9980   -1.7750 C   0  0  1  0  0  0  0  0  0  0  0  0
    2.6340   14.0270   -2.7920 C   0  0  0  0  0  0  0  0  0  0  0  0
    0.4520   12.8950   -2.2870 C   0  0  0  0  0  0  0  0  0  0  0  0
   -0.4380   12.2180   -1.2280 C   0  0  0  0  0  0  0  0  0  0  0  0
    0.3950   11.7440   -0.0330 C   0  0  2  0  0  0  0  0  0  0  0  0
    1.4030   10.6630   -0.5520 C   0  0  0  0  0  0  0  0  0  0  0  0
    0.7147    8.3187    0.7234 H   0  0  0  0  0  0  0  0  0  0  0  0
   -0.5697    8.2407   -0.5300 H   0  0  0  0  0  0  0  0  0  0  0  0
    0.6039    9.6006   -0.5300 H   0  0  0  0  0  0  0  0  0  0  0  0
   -0.9258    9.2233    1.9938 H   0  0  0  0  0  0  0  0  0  0  0  0
   -3.0368    9.5481    1.3220 H   0  0  0  0  0  0  0  0  0  0  0  0
   -2.5158   10.7338    0.0311 H   0  0  0  0  0  0  0  0  0  0  0  0
   -2.0893    7.7787   -0.3653 H   0  0  0  0  0  0  0  0  0  0  0  0
   -3.7122    8.5323   -0.6574 H   0  0  0  0  0  0  0  0  0  0  0  0
   -2.5484   10.1998   -1.7481 H   0  0  0  0  0  0  0  0  0  0  0  0
   -0.1039    7.7503   -0.9107 H   0  0  0  0  0  0  0  0  0  0  0  0
   -0.3484    6.6601   -2.3172 H   0  0  0  0  0  0  0  0  0  0  0  0
    1.0101    7.8354   -2.3172 H   0  0  0  0  0  0  0  0  0  0  0  0
    0.2934   10.3473   -3.2252 H   0  0  0  0  0  0  0  0  0  0  0  0
    0.3720    8.9309   -4.3271 H   0  0  0  0  0  0  0  0  0  0  0  0
   -1.0793    9.9893   -4.3271 H   0  0  0  0  0  0  0  0  0  0  0  0
   -1.3368   11.6749    1.2979 H   0  0  0  0  0  0  0  0  0  0  0  0
    0.0957   11.6345    3.2417 H   0  0  0  0  0  0  0  0  0  0  0  0
    1.0946   10.3256    2.5741 H   0  0  0  0  0  0  0  0  0  0  0  0
    1.8324   13.0836    2.6900 H   0  0  0  0  0  0  0  0  0  0  0  0
    2.6545   11.8827    1.6973 H   0  0  0  0  0  0  0  0  0  0  0  0
    0.0713   14.0400    2.2888 H   0  0  0  0  0  0  0  0  0  0  0  0
    0.3436   15.0562    0.8328 H   0  0  0  0  0  0  0  0  0  0  0  0
   -0.9570   13.8172    0.8328 H   0  0  0  0  0  0  0  0  0  0  0  0
    2.7884   12.8133   -0.5364 H   0  0  0  0  0  0  0  0  0  0  0  0
    3.0474   14.6303    1.2738 H   0  0  0  0  0  0  0  0  0  0  0  0
    3.8498   14.8062   -0.3739 H   0  0  0  0  0  0  0  0  0  0  0  0
    2.7335   16.9760    0.6163 H   0  0  0  0  0  0  0  0  0  0  0  0
   -0.2768   15.1482   -1.3561 H   0  0  0  0  0  0  0  0  0  0  0  0
    1.5615   16.2175   -3.5873 H   0  0  0  0  0  0  0  0  0  0  0  0
    0.0185   15.2777   -3.8010 H   0  0  0  0  0  0  0  0  0  0  0  0
   -0.2959   17.6978   -4.2089 H   0  0  0  0  0  0  0  0  0  0  0  0
   -1.2574   17.0882   -2.8054 H   0  0  0  0  0  0  0  0  0  0  0  0
   -0.2899   19.2045   -2.2169 H   0  0  0  0  0  0  0  0  0  0  0  0
    2.0530   19.3980   -2.2500 H   0  0  0  0  0  0  0  0  0  0  0  0
   -0.6068   17.7315    0.9806 H   0  0  0  0  0  0  0  0  0  0  0  0
   -1.4045   18.5569   -0.4011 H   0  0  0  0  0  0  0  0  0  0  0  0
   -1.2322   16.7689   -0.4011 H   0  0  0  0  0  0  0  0  0  0  0  0
    1.2833   18.7840    1.0322 H   0  0  0  0  0  0  0  0  0  0  0  0
    2.4634   18.8887   -0.3179 H   0  0  0  0  0  0  0  0  0  0  0  0
    1.0035   19.9353   -0.3179 H   0  0  0  0  0  0  0  0  0  0  0  0
    3.5882   14.0504   -2.2453 H   0  0  0  0  0  0  0  0  0  0  0  0
    2.5956   13.1276   -3.4242 H   0  0  0  0  0  0  0  0  0  0  0  0
    2.5515   14.9234   -3.4242 H   0  0  0  0  0  0  0  0  0  0  0  0
   -0.2115   13.3659   -3.0273 H   0  0  0  0  0  0  0  0  0  0  0  0
    1.0890   12.0907   -2.6837 H   0  0  0  0  0  0  0  0  0  0  0  0
   -1.1919   12.9384   -0.8779 H   0  0  0  0  0  0  0  0  0  0  0  0
   -0.9239   11.3436   -1.6855 H   0  0  0  0  0  0  0  0  0  0  0  0
    1.8733   10.1587    0.3050 H   0  0  0  0  0  0  0  0  0  0  0  0
    0.8649    9.9231   -1.1627 H   0  0  0  0  0  0  0  0  0  0  0  0
    2.1787   11.1481   -1.1627 H   0  0  0  0  0  0  0  0  0  0  0  0
  1  2  1  0
  2  3  1  0
  3  4  1  0
  4  5  1  0
  5  6  1  0
  6  7  1  0
  7  8  1  0
  7  9  1  0
  2 10  1  0
 10 11  1  0
 11 12  1  0
 12 13  1  0
 13 14  1  1
 13 15  1  0
 15 16  1  0
 16 17  1  0
 17 18  2  0
 18 19  1  0
 19 20  1  0
 20 21  1  0
 21 22  1  0
 22 23  1  0
 22 24  1  0
 24 25  1  0
 24 26  1  0
 19 27  1  0
 27 28  1  6
 27 29  1  0
 29 30  1  0
 30 31  1  0
 31 32  1  6
  7  5  1  0
 31 10  1  0
 31 13  1  0
 27 15  1  0
 24 18  1  0
  1 33  1  0
  1 34  1  0
  1 35  1  0
  2 36  1  1
  3 37  1  0
  3 38  1  0
  4 39  1  0
  4 40  1  0
  5 41  1  6
  8 42  1  0
  8 43  1  0
  8 44  1  0
  9 45  1  0
  9 46  1  0
  9 47  1  0
 10 48  1  1
 11 49  1  0
 11 50  1  0
 12 51  1  0
 12 52  1  0
 14 53  1  0
 14 54  1  0
 14 55  1  0
 15 56  1  6
 16 57  1  0
 16 58  1  0
 17 59  1  0
 19 60  1  1
 20 61  1  0
 20 62  1  0
 21 63  1  0
 21 64  1  0
 22 65  1  1
 23 66  1  0
 25 67  1  0
 25 68  1  0
 25 69  1  0
 26 70  1  0
 26 71  1  0
 26 72  1  0
 28 73  1  0
 28 74  1  0
 28 75  1  0
 29 76  1  0
 29 77  1  0
 30 78  1  0
 30 79  1  0
 32 80  1  0
 32 81  1  0
 32 82  1  0
M  END
>  <meeko>  (13) 
{"is_sidechain": [false], "intermolecular_energy": 2.731, "internal_energy": -0.839}

$$$$
EPH_relaxed_0001_pdb2pqr_Repair_157_r2_0001_out
     RDKit          3D

 82 86  0  0  0  0  0  0  0  0999 V2000
  -13.9070    9.6820    1.1210 C   0  0  0  0  0  0  0  0  0  0  0  0
  -13.2510    9.3340   -0.2180 C   0  0  2  0  0  0  0  0  0  0  0  0
  -14.1870    8.5140   -1.1280 C   0  0  0  0  0  0  0  0  0  0  0  0
  -15.2870    9.3470   -1.7910 C   0  0  0  0  0  0  0  0  0  0  0  0
  -14.8150    9.9720   -3.0680 C   0  0  2  0  0  0  0  0  0  0  0  0
  -13.6190   10.7540   -2.9460 O   0  0  0  0  0  0  0  0  0  0  0  0
  -14.8090   11.4700   -3.3150 C   0  0  0  0  0  0  0  0  0  0  0  0
  -15.2870   12.4340   -2.2750 C   0  0  0  0  0  0  0  0  0  0  0  0
  -14.8030   11.9620   -4.7290 C   0  0  0  0  0  0  0  0  0  0  0  0
  -11.9550    8.5690    0.0220 C   0  0  1  0  0  0  0  0  0  0  0  0
  -12.1290    7.4000    1.0280 C   0  0  0  0  0  0  0  0  0  0  0  0
  -11.1880    6.2610    0.5570 C   0  0  0  0  0  0  0  0  0  0  0  0
  -10.2680    6.9240   -0.4940 C   0  0  1  0  0  0  0  0  0  0  0  0
   -9.1700    7.6570    0.3390 C   0  0  0  0  0  0  0  0  0  0  0  0
   -9.6410    5.9710   -1.5630 C   0  0  2  0  0  0  0  0  0  0  0  0
   -8.7030    4.8880   -1.0020 C   0  0  0  0  0  0  0  0  0  0  0  0
   -7.2640    5.2750   -0.9130 C   0  0  0  0  0  0  0  0  0  0  0  0
   -6.6990    6.3310   -1.5270 C   0  0  0  0  0  0  0  0  0  0  0  0
   -7.5080    7.2090   -2.4890 C   0  0  1  0  0  0  0  0  0  0  0  0
   -6.6840    7.4590   -3.7800 C   0  0  0  0  0  0  0  0  0  0  0  0
   -5.3010    8.0340   -3.4890 C   0  0  0  0  0  0  0  0  0  0  0  0
   -4.5060    7.1040   -2.5760 C   0  0  2  0  0  0  0  0  0  0  0  0
   -4.2230    5.8940   -3.2840 O   0  0  0  0  0  0  0  0  0  0  0  0
   -5.2410    6.7740   -1.2470 C   0  0  0  0  0  0  0  0  0  0  0  0
   -5.2790    8.0320   -0.3460 C   0  0  0  0  0  0  0  0  0  0  0  0
   -4.3960    5.7190   -0.4840 C   0  0  0  0  0  0  0  0  0  0  0  0
   -8.9890    6.7190   -2.7960 C   0  0  1  0  0  0  0  0  0  0  0  0
   -8.9790    5.7030   -3.9790 C   0  0  0  0  0  0  0  0  0  0  0  0
   -9.8490    7.9480   -3.2730 C   0  0  0  0  0  0  0  0  0  0  0  0
  -10.5410    8.7800   -2.1760 C   0  0  0  0  0  0  0  0  0  0  0  0
  -11.3000    7.8770   -1.2000 C   0  0  2  0  0  0  0  0  0  0  0  0
  -12.4260    7.1430   -2.0050 C   0  0  0  0  0  0  0  0  0  0  0  0
  -13.2629    9.3403    1.9446 H   0  0  0  0  0  0  0  0  0  0  0  0
  -14.0438   10.7713    1.1902 H   0  0  0  0  0  0  0  0  0  0  0  0
  -14.8856    9.1844    1.1902 H   0  0  0  0  0  0  0  0  0  0  0  0
  -13.0339   10.2798   -0.7360 H   0  0  0  0  0  0  0  0  0  0  0  0
  -13.5811    8.0470   -1.9185 H   0  0  0  0  0  0  0  0  0  0  0  0
  -14.6875    7.7719   -0.4886 H   0  0  0  0  0  0  0  0  0  0  0  0
  -16.1455    8.6948   -2.0093 H   0  0  0  0  0  0  0  0  0  0  0  0
  -15.5707   10.1535   -1.0988 H   0  0  0  0  0  0  0  0  0  0  0  0
  -15.2103    9.1291   -3.6539 H   0  0  0  0  0  0  0  0  0  0  0  0
  -15.0839   12.0245   -1.2745 H   0  0  0  0  0  0  0  0  0  0  0  0
  -14.7596   13.3921   -2.3930 H   0  0  0  0  0  0  0  0  0  0  0  0
  -16.3689   12.5941   -2.3930 H   0  0  0  0  0  0  0  0  0  0  0  0
  -14.7896   13.0619   -4.7345 H   0  0  0  0  0  0  0  0  0  0  0  0
  -13.9094   11.5818   -5.2457 H   0  0  0  0  0  0  0  0  0  0  0  0
  -15.7056   11.6037   -5.2457 H   0  0  0  0  0  0  0  0  0  0  0  0
  -11.3173    9.3933    0.3739 H   0  0  0  0  0  0  0  0  0  0  0  0
  -11.8506    7.7270    2.0407 H   0  0  0  0  0  0  0  0  0  0  0  0
  -13.1746    7.0601    1.0617 H   0  0  0  0  0  0  0  0  0  0  0  0
  -10.5975    5.8719    1.3996 H   0  0  0  0  0  0  0  0  0  0  0  0
  -11.7429    5.4053    0.1448 H   0  0  0  0  0  0  0  0  0  0  0  0
   -9.3724    7.5219    1.4118 H   0  0  0  0  0  0  0  0  0  0  0  0
   -8.1833    7.2358    0.0961 H   0  0  0  0  0  0  0  0  0  0  0  0
   -9.1806    8.7298    0.0961 H   0  0  0  0  0  0  0  0  0  0  0  0
  -10.5217    5.4341   -1.9452 H   0  0  0  0  0  0  0  0  0  0  0  0
   -9.0488    4.6297    0.0098 H   0  0  0  0  0  0  0  0  0  0  0  0
   -8.7491    4.0482   -1.7110 H   0  0  0  0  0  0  0  0  0  0  0  0
   -6.6102    4.6438   -0.2932 H   0  0  0  0  0  0  0  0  0  0  0  0
   -7.6761    8.1606   -1.9634 H   0  0  0  0  0  0  0  0  0  0  0  0
   -6.5639    6.5038   -4.3122 H   0  0  0  0  0  0  0  0  0  0  0  0
   -7.2306    8.1951   -4.3878 H   0  0  0  0  0  0  0  0  0  0  0  0
   -4.7567    8.1604   -4.4365 H   0  0  0  0  0  0  0  0  0  0  0  0
   -5.4224    9.0035   -2.9837 H   0  0  0  0  0  0  0  0  0  0  0  0
   -3.5790    7.6272   -2.2988 H   0  0  0  0  0  0  0  0  0  0  0  0
   -5.0310    5.6340   -3.7570 H   0  0  0  0  0  0  0  0  0  0  0  0
   -5.2698    7.7266    0.7107 H   0  0  0  0  0  0  0  0  0  0  0  0
   -4.3994    8.6588   -0.5542 H   0  0  0  0  0  0  0  0  0  0  0  0
   -6.1949    8.6046   -0.5542 H   0  0  0  0  0  0  0  0  0  0  0  0
   -4.5151    5.8677    0.5994 H   0  0  0  0  0  0  0  0  0  0  0  0
   -4.7380    4.7094   -0.7553 H   0  0  0  0  0  0  0  0  0  0  0  0
   -3.3360    5.8323   -0.7553 H   0  0  0  0  0  0  0  0  0  0  0  0
   -8.9689    4.6774   -3.5814 H   0  0  0  0  0  0  0  0  0  0  0  0
   -9.8786    5.8486   -4.5950 H   0  0  0  0  0  0  0  0  0  0  0  0
   -8.0824    5.8663   -4.5950 H   0  0  0  0  0  0  0  0  0  0  0  0
   -9.1839    8.6224   -3.8323 H   0  0  0  0  0  0  0  0  0  0  0  0
  -10.6684    7.5134   -3.8643 H   0  0  0  0  0  0  0  0  0  0  0  0
   -9.7799    9.3491   -1.6220 H   0  0  0  0  0  0  0  0  0  0  0  0
  -11.2596    9.4620   -2.6540 H   0  0  0  0  0  0  0  0  0  0  0  0
  -13.1359    6.6802   -1.3037 H   0  0  0  0  0  0  0  0  0  0  0  0
  -12.9568    7.8691   -2.6383 H   0  0  0  0  0  0  0  0  0  0  0  0
  -11.9759    6.3643   -2.6383 H   0  0  0  0  0  0  0  0  0  0  0  0
  1  2  1  0
  2  3  1  0
  3  4  1  0
  4  5  1  0
  5  6  1  0
  6  7  1  0
  7  8  1  0
  7  9  1  0
  2 10  1  0
 10 11  1  0
 11 12  1  0
 12 13  1  0
 13 14  1  1
 13 15  1  0
 15 16  1  0
 16 17  1  0
 17 18  2  0
 18 19  1  0
 19 20  1  0
 20 21  1  0
 21 22  1  0
 22 23  1  0
 22 24  1  0
 24 25  1  0
 24 26  1  0
 19 27  1  0
 27 28  1  6
 27 29  1  0
 29 30  1  0
 30 31  1  0
 31 32  1  6
  7  5  1  0
 31 10  1  0
 31 13  1  0
 27 15  1  0
 24 18  1  0
  1 33  1  0
  1 34  1  0
  1 35  1  0
  2 36  1  6
  3 37  1  0
  3 38  1  0
  4 39  1  0
  4 40  1  0
  5 41  1  6
  8 42  1  0
  8 43  1  0
  8 44  1  0
  9 45  1  0
  9 46  1  0
  9 47  1  0
 10 48  1  1
 11 49  1  0
 11 50  1  0
 12 51  1  0
 12 52  1  0
 14 53  1  0
 14 54  1  0
 14 55  1  0
 15 56  1  6
 16 57  1  0
 16 58  1  0
 17 59  1  0
 19 60  1  1
 20 61  1  0
 20 62  1  0
 21 63  1  0
 21 64  1  0
 22 65  1  1
 23 66  1  0
 25 67  1  0
 25 68  1  0
 25 69  1  0
 26 70  1  0
 26 71  1  0
 26 72  1  0
 28 73  1  0
 28 74  1  0
 28 75  1  0
 29 76  1  0
 29 77  1  0
 30 78  1  0
 30 79  1  0
 32 80  1  0
 32 81  1  0
 32 82  1  0
M  END
>  <meeko>  (14) 
{"is_sidechain": [false], "intermolecular_energy": 2.731, "internal_energy": -0.839}

$$$$
EPH_relaxed_0001_pdb2pqr_Repair_157_r2_0001_out
     RDKit          3D

 82 86  0  0  0  0  0  0  0  0999 V2000
    0.5850   14.3440   -3.9580 C   0  0  0  0  0  0  0  0  0  0  0  0
    1.1420   13.5050   -2.8050 C   0  0  2  0  0  0  0  0  0  0  0  0
    2.6830   13.5020   -2.7800 C   0  0  0  0  0  0  0  0  0  0  0  0
    3.3160   12.6920   -3.9150 C   0  0  0  0  0  0  0  0  0  0  0  0
    4.7980   12.5530   -3.7380 C   0  0  2  0  0  0  0  0  0  0  0  0
    5.5610   12.6970   -4.9430 O   0  0  0  0  0  0  0  0  0  0  0  0
    5.6050   11.4060   -4.3150 C   0  0  0  0  0  0  0  0  0  0  0  0
    4.9560   10.3190   -5.1130 C   0  0  0  0  0  0  0  0  0  0  0  0
    6.9300   11.0810   -3.6980 C   0  0  0  0  0  0  0  0  0  0  0  0
    0.6200   12.0760   -2.9020 C   0  0  1  0  0  0  0  0  0  0  0  0
    1.7610   11.0260   -2.9590 C   0  0  0  0  0  0  0  0  0  0  0  0
    1.2550    9.7740   -2.1970 C   0  0  0  0  0  0  0  0  0  0  0  0
   -0.2630   10.0140   -2.0170 C   0  0  1  0  0  0  0  0  0  0  0  0
   -0.8990    9.5960   -3.3800 C   0  0  0  0  0  0  0  0  0  0  0  0
   -0.9410    9.2790   -0.8150 C   0  0  2  0  0  0  0  0  0  0  0  0
   -0.8980    7.7430   -0.8810 C   0  0  0  0  0  0  0  0  0  0  0  0
   -2.0600    7.1010   -1.5640 C   0  0  0  0  0  0  0  0  0  0  0  0
   -3.2290    7.7040   -1.8510 C   0  0  0  0  0  0  0  0  0  0  0  0
   -3.5070    9.1410   -1.3930 C   0  0  1  0  0  0  0  0  0  0  0  0
   -4.9240    9.2180   -0.7650 C   0  0  0  0  0  0  0  0  0  0  0  0
   -6.0070    8.6830   -1.6960 C   0  0  0  0  0  0  0  0  0  0  0  0
   -5.7250    7.2330   -2.0830 C   0  0  2  0  0  0  0  0  0  0  0  0
   -5.8500    6.4120   -0.9180 O   0  0  0  0  0  0  0  0  0  0  0  0
   -4.3210    7.0300   -2.7180 C   0  0  0  0  0  0  0  0  0  0  0  0
   -4.2890    7.6730   -4.1270 C   0  0  0  0  0  0  0  0  0  0  0  0
   -4.1090    5.5070   -2.9310 C   0  0  0  0  0  0  0  0  0  0  0  0
   -2.3940    9.8030   -0.4720 C   0  0  1  0  0  0  0  0  0  0  0  0
   -2.6560    9.4420    1.0220 C   0  0  0  0  0  0  0  0  0  0  0  0
   -2.5060   11.3700   -0.5760 C   0  0  0  0  0  0  0  0  0  0  0  0
   -1.7170   12.0480   -1.7130 C   0  0  0  0  0  0  0  0  0  0  0  0
   -0.2650   11.5610   -1.7400 C   0  0  2  0  0  0  0  0  0  0  0  0
    0.4070   11.9860   -0.3900 C   0  0  0  0  0  0  0  0  0  0  0  0
    0.0196   15.1957   -3.5519 H   0  0  0  0  0  0  0  0  0  0  0  0
    1.4159   14.7163   -4.5753 H   0  0  0  0  0  0  0  0  0  0  0  0
   -0.0807   13.7228   -4.5753 H   0  0  0  0  0  0  0  0  0  0  0  0
    0.7978   13.9638   -1.8664 H   0  0  0  0  0  0  0  0  0  0  0  0
    3.0335   14.5417   -2.8581 H   0  0  0  0  0  0  0  0  0  0  0  0
    2.9880   13.0257   -1.8366 H   0  0  0  0  0  0  0  0  0  0  0  0
    2.8636   11.6895   -3.9327 H   0  0  0  0  0  0  0  0  0  0  0  0
    3.1322   13.2244   -4.8598 H   0  0  0  0  0  0  0  0  0  0  0  0
    4.7407   12.9788   -2.7254 H   0  0  0  0  0  0  0  0  0  0  0  0
    4.5135    9.5779   -4.4312 H   0  0  0  0  0  0  0  0  0  0  0  0
    4.1676   10.7505   -5.7472 H   0  0  0  0  0  0  0  0  0  0  0  0
    5.7099    9.8297   -5.7472 H   0  0  0  0  0  0  0  0  0  0  0  0
    6.8394   11.1032   -2.6020 H   0  0  0  0  0  0  0  0  0  0  0  0
    7.2480   10.0782   -4.0194 H   0  0  0  0  0  0  0  0  0  0  0  0
    7.6760   11.8228   -4.0194 H   0  0  0  0  0  0  0  0  0  0  0  0
    0.0213   12.1609   -3.8209 H   0  0  0  0  0  0  0  0  0  0  0  0
    1.9864   10.7679   -4.0043 H   0  0  0  0  0  0  0  0  0  0  0  0
    2.6826   11.4191   -2.5050 H   0  0  0  0  0  0  0  0  0  0  0  0
    1.4370    8.8619   -2.7844 H   0  0  0  0  0  0  0  0  0  0  0  0
    1.7719    9.6330   -1.2363 H   0  0  0  0  0  0  0  0  0  0  0  0
   -1.8051    9.0005   -3.1945 H   0  0  0  0  0  0  0  0  0  0  0  0
   -1.1633   10.4970   -3.9529 H   0  0  0  0  0  0  0  0  0  0  0  0
   -0.1767    8.9959   -3.9529 H   0  0  0  0  0  0  0  0  0  0  0  0
   -0.2932    9.5590    0.0288 H   0  0  0  0  0  0  0  0  0  0  0  0
    0.0160    7.4514   -1.4191 H   0  0  0  0  0  0  0  0  0  0  0  0
   -0.9264    7.3928    0.1614 H   0  0  0  0  0  0  0  0  0  0  0  0
   -1.9519    6.0464   -1.8575 H   0  0  0  0  0  0  0  0  0  0  0  0
   -3.4654    9.7632   -2.2992 H   0  0  0  0  0  0  0  0  0  0  0  0
   -4.9315    8.6254    0.1617 H   0  0  0  0  0  0  0  0  0  0  0  0
   -5.1453   10.2777   -0.5701 H   0  0  0  0  0  0  0  0  0  0  0  0
   -6.9798    8.7368   -1.1853 H   0  0  0  0  0  0  0  0  0  0  0  0
   -6.0186    9.2949   -2.6100 H   0  0  0  0  0  0  0  0  0  0  0  0
   -6.4598    6.9477   -2.8502 H   0  0  0  0  0  0  0  0  0  0  0  0
   -5.9920    7.0010   -0.1570 H   0  0  0  0  0  0  0  0  0  0  0  0
   -4.2345    8.7673   -4.0295 H   0  0  0  0  0  0  0  0  0  0  0  0
   -3.4078    7.3095   -4.6760 H   0  0  0  0  0  0  0  0  0  0  0  0
   -5.2019    7.3988   -4.6760 H   0  0  0  0  0  0  0  0  0  0  0  0
   -4.0393    5.0063   -1.9540 H   0  0  0  0  0  0  0  0  0  0  0  0
   -4.9583    5.0939   -3.4950 H   0  0  0  0  0  0  0  0  0  0  0  0
   -3.1792    5.3416   -3.4950 H   0  0  0  0  0  0  0  0  0  0  0  0
   -2.1339   10.1614    1.6700 H   0  0  0  0  0  0  0  0  0  0  0  0
   -3.7363    9.4825    1.2250 H   0  0  0  0  0  0  0  0  0  0  0  0
   -2.2826    8.4274    1.2250 H   0  0  0  0  0  0  0  0  0  0  0  0
   -3.5685   11.6195   -0.7132 H   0  0  0  0  0  0  0  0  0  0  0  0
   -2.0593   11.7533    0.3533 H   0  0  0  0  0  0  0  0  0  0  0  0
   -2.1946   11.8087   -2.6746 H   0  0  0  0  0  0  0  0  0  0  0  0
   -1.7190   13.1345   -1.5414 H   0  0  0  0  0  0  0  0  0  0  0  0
   -0.1910   11.6078    0.4523 H   0  0  0  0  0  0  0  0  0  0  0  0
    1.4220   11.5652   -0.3372 H   0  0  0  0  0  0  0  0  0  0  0  0
    0.4618   13.0834   -0.3372 H   0  0  0  0  0  0  0  0  0  0  0  0
  1  2  1  0
  2  3  1  0
  3  4  1  0
  4  5  1  0
  5  6  1  0
  6  7  1  0
  7  8  1  0
  7  9  1  0
  2 10  1  0
 10 11  1  0
 11 12  1  0
 12 13  1  0
 13 14  1  6
 13 15  1  0
 15 16  1  0
 16 17  1  0
 17 18  2  0
 18 19  1  0
 19 20  1  0
 20 21  1  0
 21 22  1  0
 22 23  1  0
 22 24  1  0
 24 25  1  0
 24 26  1  0
 19 27  1  0
 27 28  1  1
 27 29  1  0
 29 30  1  0
 30 31  1  0
 31 32  1  1
  7  5  1  0
 31 10  1  0
 31 13  1  0
 27 15  1  0
 24 18  1  0
  1 33  1  0
  1 34  1  0
  1 35  1  0
  2 36  1  1
  3 37  1  0
  3 38  1  0
  4 39  1  0
  4 40  1  0
  5 41  1  1
  8 42  1  0
  8 43  1  0
  8 44  1  0
  9 45  1  0
  9 46  1  0
  9 47  1  0
 10 48  1  6
 11 49  1  0
 11 50  1  0
 12 51  1  0
 12 52  1  0
 14 53  1  0
 14 54  1  0
 14 55  1  0
 15 56  1  1
 16 57  1  0
 16 58  1  0
 17 59  1  0
 19 60  1  6
 20 61  1  0
 20 62  1  0
 21 63  1  0
 21 64  1  0
 22 65  1  6
 23 66  1  0
 25 67  1  0
 25 68  1  0
 25 69  1  0
 26 70  1  0
 26 71  1  0
 26 72  1  0
 28 73  1  0
 28 74  1  0
 28 75  1  0
 29 76  1  0
 29 77  1  0
 30 78  1  0
 30 79  1  0
 32 80  1  0
 32 81  1  0
 32 82  1  0
M  END
>  <meeko>  (15) 
{"is_sidechain": [false], "intermolecular_energy": 2.731, "internal_energy": -0.839}

$$$$
EPH_relaxed_0001_pdb2pqr_Repair_157_r2_0001_out
     RDKit          3D

 82 86  0  0  0  0  0  0  0  0999 V2000
    3.7550   16.7030    1.0320 C   0  0  0  0  0  0  0  0  0  0  0  0
    2.5770   17.3230    0.2740 C   0  0  2  0  0  0  0  0  0  0  0  0
    2.0210   18.5720    0.9860 C   0  0  0  0  0  0  0  0  0  0  0  0
    3.1040   19.5490    1.4510 C   0  0  0  0  0  0  0  0  0  0  0  0
    3.7190   19.1190    2.7480 C   0  0  2  0  0  0  0  0  0  0  0  0
    4.1610   20.1940    3.5870 O   0  0  0  0  0  0  0  0  0  0  0  0
    5.1840   19.3180    3.0860 C   0  0  0  0  0  0  0  0  0  0  0  0
    6.1260   19.9710    2.1230 C   0  0  0  0  0  0  0  0  0  0  0  0
    5.8010   18.4490    4.1370 C   0  0  0  0  0  0  0  0  0  0  0  0
    1.4720   16.2890    0.0960 C   0  0  1  0  0  0  0  0  0  0  0  0
    0.1420   16.9150   -0.4030 C   0  0  0  0  0  0  0  0  0  0  0  0
   -0.5200   15.8710   -1.3380 C   0  0  0  0  0  0  0  0  0  0  0  0
    0.2700   14.5650   -1.0880 C   0  0  1  0  0  0  0  0  0  0  0  0
   -0.3430   13.9700    0.2180 C   0  0  0  0  0  0  0  0  0  0  0  0
    0.2700   13.5230   -2.2530 C   0  0  2  0  0  0  0  0  0  0  0  0
   -1.1130   12.9570   -2.6210 C   0  0  0  0  0  0  0  0  0  0  0  0
   -1.5100   11.7180   -1.8890 C   0  0  0  0  0  0  0  0  0  0  0  0
   -0.6810   10.9260   -1.1840 C   0  0  0  0  0  0  0  0  0  0  0  0
    0.8290   11.1950   -1.1550 C   0  0  1  0  0  0  0  0  0  0  0  0
    1.5960    9.8670   -1.3910 C   0  0  0  0  0  0  0  0  0  0  0  0
    1.1800    8.7700   -0.4160 C   0  0  0  0  0  0  0  0  0  0  0  0
   -0.3180    8.4910   -0.5160 C   0  0  2  0  0  0  0  0  0  0  0  0
   -0.5960    7.9220   -1.7990 O   0  0  0  0  0  0  0  0  0  0  0  0
   -1.1930    9.7580   -0.3050 C   0  0  0  0  0  0  0  0  0  0  0  0
   -1.1220   10.1990    1.1780 C   0  0  0  0  0  0  0  0  0  0  0  0
   -2.6710    9.3670   -0.5720 C   0  0  0  0  0  0  0  0  0  0  0  0
    1.3420   12.3710   -2.0930 C   0  0  1  0  0  0  0  0  0  0  0  0
    1.6260   11.8240   -3.5250 C   0  0  0  0  0  0  0  0  0  0  0  0
    2.7170   12.9060   -1.5410 C   0  0  0  0  0  0  0  0  0  0  0  0
    2.6530   14.0190   -0.4780 C   0  0  0  0  0  0  0  0  0  0  0  0
    1.7210   15.1490   -0.9240 C   0  0  2  0  0  0  0  0  0  0  0  0
    2.3230   15.7830   -2.2240 C   0  0  0  0  0  0  0  0  0  0  0  0
    3.5828   16.7936    2.1147 H   0  0  0  0  0  0  0  0  0  0  0  0
    3.8457   15.6403    0.7628 H   0  0  0  0  0  0  0  0  0  0  0  0
    4.6823   17.2299    0.7628 H   0  0  0  0  0  0  0  0  0  0  0  0
    2.9485   17.6431   -0.7106 H   0  0  0  0  0  0  0  0  0  0  0  0
    1.3529   19.1000    0.2897 H   0  0  0  0  0  0  0  0  0  0  0  0
    1.4963   18.2214    1.8870 H   0  0  0  0  0  0  0  0  0  0  0  0
    3.8904   19.6010    0.6836 H   0  0  0  0  0  0  0  0  0  0  0  0
    2.6358   20.5327    1.6032 H   0  0  0  0  0  0  0  0  0  0  0  0
    3.0654   18.2353    2.7914 H   0  0  0  0  0  0  0  0  0  0  0  0
    6.9050   20.5110    2.6812 H   0  0  0  0  0  0  0  0  0  0  0  0
    6.5943   19.2028    1.4901 H   0  0  0  0  0  0  0  0  0  0  0  0
    5.5709   20.6790    1.4901 H   0  0  0  0  0  0  0  0  0  0  0  0
    5.5306   18.8299    5.1329 H   0  0  0  0  0  0  0  0  0  0  0  0
    5.4306   17.4193    4.0252 H   0  0  0  0  0  0  0  0  0  0  0  0
    6.8953   18.4592    4.0252 H   0  0  0  0  0  0  0  0  0  0  0  0
    1.4376   15.8795    1.1163 H   0  0  0  0  0  0  0  0  0  0  0  0
   -0.5180   17.1322    0.4498 H   0  0  0  0  0  0  0  0  0  0  0  0
    0.3252   17.8609   -0.9338 H   0  0  0  0  0  0  0  0  0  0  0  0
   -1.5813   15.7378   -1.0812 H   0  0  0  0  0  0  0  0  0  0  0  0
   -0.4915   16.1796   -2.3934 H   0  0  0  0  0  0  0  0  0  0  0  0
    0.1358   14.4347    1.0926 H   0  0  0  0  0  0  0  0  0  0  0  0
   -1.4240   14.1724    0.2410 H   0  0  0  0  0  0  0  0  0  0  0  0
   -0.1729   12.8835    0.2410 H   0  0  0  0  0  0  0  0  0  0  0  0
    0.5832   14.1317   -3.1140 H   0  0  0  0  0  0  0  0  0  0  0  0
   -1.8646   13.7320   -2.4101 H   0  0  0  0  0  0  0  0  0  0  0  0
   -1.0547   12.6775   -3.6833 H   0  0  0  0  0  0  0  0  0  0  0  0
   -2.5702   11.4276   -1.9292 H   0  0  0  0  0  0  0  0  0  0  0  0
    1.0501   11.5801   -0.1486 H   0  0  0  0  0  0  0  0  0  0  0  0
    1.3963    9.5219   -2.4162 H   0  0  0  0  0  0  0  0  0  0  0  0
    2.6660   10.0667   -1.2322 H   0  0  0  0  0  0  0  0  0  0  0  0
    1.7342    7.8495   -0.6518 H   0  0  0  0  0  0  0  0  0  0  0  0
    1.4076    9.1044    0.6069 H   0  0  0  0  0  0  0  0  0  0  0  0
   -0.5782    7.7927    0.2931 H   0  0  0  0  0  0  0  0  0  0  0  0
   -0.1990    8.5020   -2.4710 H   0  0  0  0  0  0  0  0  0  0  0  0
   -1.2630    9.3230    1.8282 H   0  0  0  0  0  0  0  0  0  0  0  0
   -0.1395   10.6508    1.3795 H   0  0  0  0  0  0  0  0  0  0  0  0
   -1.9130   10.9364    1.3795 H   0  0  0  0  0  0  0  0  0  0  0  0
   -3.1927    9.2290    0.3865 H   0  0  0  0  0  0  0  0  0  0  0  0
   -3.1636   10.1657   -1.1459 H   0  0  0  0  0  0  0  0  0  0  0  0
   -2.7042    8.4292   -1.1459 H   0  0  0  0  0  0  0  0  0  0  0  0
    2.1317   10.8499   -3.4518 H   0  0  0  0  0  0  0  0  0  0  0  0
    0.6762   11.7042   -4.0668 H   0  0  0  0  0  0  0  0  0  0  0  0
    2.2704   12.5319   -4.0668 H   0  0  0  0  0  0  0  0  0  0  0  0
    3.2522   12.0532   -1.0980 H   0  0  0  0  0  0  0  0  0  0  0  0
    3.2164   13.3640   -2.4075 H   0  0  0  0  0  0  0  0  0  0  0  0
    2.2786   13.5947    0.4653 H   0  0  0  0  0  0  0  0  0  0  0  0
    3.6635   14.4312   -0.3401 H   0  0  0  0  0  0  0  0  0  0  0  0
    3.0565   16.5555   -1.9495 H   0  0  0  0  0  0  0  0  0  0  0  0
    2.8189   15.0009   -2.8176 H   0  0  0  0  0  0  0  0  0  0  0  0
    1.5163   16.2378   -2.8176 H   0  0  0  0  0  0  0  0  0  0  0  0
  1  2  1  0
  2  3  1  0
  3  4  1  0
  4  5  1  0
  5  6  1  0
  6  7  1  0
  7  8  1  0
  7  9  1  0
  2 10  1  0
 10 11  1  0
 11 12  1  0
 12 13  1  0
 13 14  1  1
 13 15  1  0
 15 16  1  0
 16 17  1  0
 17 18  2  0
 18 19  1  0
 19 20  1  0
 20 21  1  0
 21 22  1  0
 22 23  1  0
 22 24  1  0
 24 25  1  0
 24 26  1  0
 19 27  1  0
 27 28  1  6
 27 29  1  0
 29 30  1  0
 30 31  1  0
 31 32  1  6
  7  5  1  0
 31 10  1  0
 31 13  1  0
 27 15  1  0
 24 18  1  0
  1 33  1  0
  1 34  1  0
  1 35  1  0
  2 36  1  6
  3 37  1  0
  3 38  1  0
  4 39  1  0
  4 40  1  0
  5 41  1  1
  8 42  1  0
  8 43  1  0
  8 44  1  0
  9 45  1  0
  9 46  1  0
  9 47  1  0
 10 48  1  1
 11 49  1  0
 11 50  1  0
 12 51  1  0
 12 52  1  0
 14 53  1  0
 14 54  1  0
 14 55  1  0
 15 56  1  6
 16 57  1  0
 16 58  1  0
 17 59  1  0
 19 60  1  1
 20 61  1  0
 20 62  1  0
 21 63  1  0
 21 64  1  0
 22 65  1  1
 23 66  1  0
 25 67  1  0
 25 68  1  0
 25 69  1  0
 26 70  1  0
 26 71  1  0
 26 72  1  0
 28 73  1  0
 28 74  1  0
 28 75  1  0
 29 76  1  0
 29 77  1  0
 30 78  1  0
 30 79  1  0
 32 80  1  0
 32 81  1  0
 32 82  1  0
M  END
>  <meeko>  (16) 
{"is_sidechain": [false], "intermolecular_energy": 2.731, "internal_energy": -0.839}

$$$$
EPH_relaxed_0001_pdb2pqr_Repair_157_r2_0001_out
     RDKit          3D

 82 86  0  0  0  0  0  0  0  0999 V2000
  -15.2870    7.0730   -0.4160 C   0  0  0  0  0  0  0  0  0  0  0  0
  -14.7270    8.1530   -1.3450 C   0  0  2  0  0  0  0  0  0  0  0  0
  -14.8670    7.7700   -2.8320 C   0  0  0  0  0  0  0  0  0  0  0  0
  -14.6620    8.9450   -3.7920 C   0  0  0  0  0  0  0  0  0  0  0  0
  -15.2870   10.2030   -3.2700 C   0  0  2  0  0  0  0  0  0  0  0  0
  -15.0630   11.3640   -4.0810 O   0  0  0  0  0  0  0  0  0  0  0  0
  -14.4870   11.3880   -2.7650 C   0  0  0  0  0  0  0  0  0  0  0  0
  -12.9900   11.3720   -2.7550 C   0  0  0  0  0  0  0  0  0  0  0  0
  -15.1500   12.3550   -1.8340 C   0  0  0  0  0  0  0  0  0  0  0  0
  -13.2640    8.4190   -1.0100 C   0  0  1  0  0  0  0  0  0  0  0  0
  -13.0700    8.9590    0.4320 C   0  0  0  0  0  0  0  0  0  0  0  0
  -11.7310    8.3760    0.9510 C   0  0  0  0  0  0  0  0  0  0  0  0
  -11.0420    7.7980   -0.3080 C   0  0  1  0  0  0  0  0  0  0  0  0
  -10.3810    9.0280   -1.0040 C   0  0  0  0  0  0  0  0  0  0  0  0
  -10.0110    6.6490   -0.0650 C   0  0  2  0  0  0  0  0  0  0  0  0
   -8.7850    7.0390    0.7790 C   0  0  0  0  0  0  0  0  0  0  0  0
   -7.6140    7.5470    0.0060 C   0  0  0  0  0  0  0  0  0  0  0  0
   -7.4390    7.4200   -1.3230 C   0  0  0  0  0  0  0  0  0  0  0  0
   -8.4330    6.6210   -2.1750 C   0  0  1  0  0  0  0  0  0  0  0  0
   -7.6560    5.6750   -3.1280 C   0  0  0  0  0  0  0  0  0  0  0  0
   -6.6250    6.4150   -3.9740 C   0  0  0  0  0  0  0  0  0  0  0  0
   -5.6200    7.1490   -3.0910 C   0  0  2  0  0  0  0  0  0  0  0  0
   -4.8390    6.1830   -2.3810 O   0  0  0  0  0  0  0  0  0  0  0  0
   -6.2880    8.1240   -2.0820 C   0  0  0  0  0  0  0  0  0  0  0  0
   -6.8780    9.3370   -2.8440 C   0  0  0  0  0  0  0  0  0  0  0  0
   -5.1760    8.6920   -1.1590 C   0  0  0  0  0  0  0  0  0  0  0  0
   -9.5850    5.8720   -1.3760 C   0  0  1  0  0  0  0  0  0  0  0  0
   -9.0880    4.4660   -0.9200 C   0  0  0  0  0  0  0  0  0  0  0  0
  -10.8020    5.6200   -2.3440 C   0  0  0  0  0  0  0  0  0  0  0  0
  -11.8500    6.7440   -2.4500 C   0  0  0  0  0  0  0  0  0  0  0  0
  -12.2930    7.2130   -1.0600 C   0  0  2  0  0  0  0  0  0  0  0  0
  -12.9820    6.0020   -0.3440 C   0  0  0  0  0  0  0  0  0  0  0  0
  -15.1314    7.3731    0.6308 H   0  0  0  0  0  0  0  0  0  0  0  0
  -16.3633    6.9483   -0.6056 H   0  0  0  0  0  0  0  0  0  0  0  0
  -14.7687    6.1215   -0.6056 H   0  0  0  0  0  0  0  0  0  0  0  0
  -15.3171    9.0671   -1.1835 H   0  0  0  0  0  0  0  0  0  0  0  0
  -14.1188    6.9977   -3.0636 H   0  0  0  0  0  0  0  0  0  0  0  0
  -15.8973    7.4128   -2.9764 H   0  0  0  0  0  0  0  0  0  0  0  0
  -13.5830    9.1120   -3.9257 H   0  0  0  0  0  0  0  0  0  0  0  0
  -15.1437    8.6942   -4.7486 H   0  0  0  0  0  0  0  0  0  0  0  0
  -16.1198    9.6343   -2.8306 H   0  0  0  0  0  0  0  0  0  0  0  0
  -12.6303   11.3682   -1.7155 H   0  0  0  0  0  0  0  0  0  0  0  0
  -12.6295   10.4700   -3.2711 H   0  0  0  0  0  0  0  0  0  0  0  0
  -12.6103   12.2661   -3.2711 H   0  0  0  0  0  0  0  0  0  0  0  0
  -14.9477   12.0599   -0.7938 H   0  0  0  0  0  0  0  0  0  0  0  0
  -14.7540   13.3657   -2.0121 H   0  0  0  0  0  0  0  0  0  0  0  0
  -16.2355   12.3499   -2.0121 H   0  0  0  0  0  0  0  0  0  0  0  0
  -13.0184    9.1335   -1.8095 H   0  0  0  0  0  0  0  0  0  0  0  0
  -13.0262   10.0581    0.4223 H   0  0  0  0  0  0  0  0  0  0  0  0
  -13.9076    8.6631    1.0807 H   0  0  0  0  0  0  0  0  0  0  0  0
  -11.1133    9.1657    1.4036 H   0  0  0  0  0  0  0  0  0  0  0  0
  -11.8821    7.6144    1.7302 H   0  0  0  0  0  0  0  0  0  0  0  0
  -10.0067    9.7246   -0.2394 H   0  0  0  0  0  0  0  0  0  0  0  0
   -9.5440    8.6881   -1.6317 H   0  0  0  0  0  0  0  0  0  0  0  0
  -11.1263    9.5385   -1.6317 H   0  0  0  0  0  0  0  0  0  0  0  0
  -10.5868    5.9437    0.5522 H   0  0  0  0  0  0  0  0  0  0  0  0
   -9.0938    7.8251    1.4838 H   0  0  0  0  0  0  0  0  0  0  0  0
   -8.4473    6.1145    1.2701 H   0  0  0  0  0  0  0  0  0  0  0  0
   -6.8271    8.0695    0.5697 H   0  0  0  0  0  0  0  0  0  0  0  0
   -8.9945    7.3623   -2.7626 H   0  0  0  0  0  0  0  0  0  0  0  0
   -7.1374    4.9151   -2.5249 H   0  0  0  0  0  0  0  0  0  0  0  0
   -8.3854    5.2191   -3.8137 H   0  0  0  0  0  0  0  0  0  0  0  0
   -6.0887    5.6898   -4.6036 H   0  0  0  0  0  0  0  0  0  0  0  0
   -7.1486    7.1537   -4.5986 H   0  0  0  0  0  0  0  0  0  0  0  0
   -4.9892    7.7637   -3.7500 H   0  0  0  0  0  0  0  0  0  0  0  0
   -4.9970    5.3160   -2.7930 H   0  0  0  0  0  0  0  0  0  0  0  0
   -7.2408   10.0828   -2.1214 H   0  0  0  0  0  0  0  0  0  0  0  0
   -6.0984    9.7876   -3.4758 H   0  0  0  0  0  0  0  0  0  0  0  0
   -7.7138    9.0019   -3.4758 H   0  0  0  0  0  0  0  0  0  0  0  0
   -5.4624    8.5457   -0.1071 H   0  0  0  0  0  0  0  0  0  0  0  0
   -4.2304    8.1665   -1.3580 H   0  0  0  0  0  0  0  0  0  0  0  0
   -5.0475    9.7662   -1.3580 H   0  0  0  0  0  0  0  0  0  0  0  0
   -9.0722    4.4213    0.1790 H   0  0  0  0  0  0  0  0  0  0  0  0
   -9.7674    3.6931   -1.3087 H   0  0  0  0  0  0  0  0  0  0  0  0
   -8.0738    4.2918   -1.3087 H   0  0  0  0  0  0  0  0  0  0  0  0
  -10.3956    5.4480   -3.3516 H   0  0  0  0  0  0  0  0  0  0  0  0
  -11.3409    4.7640   -1.9117 H   0  0  0  0  0  0  0  0  0  0  0  0
  -11.4124    7.5940   -2.9941 H   0  0  0  0  0  0  0  0  0  0  0  0
  -12.7286    6.3553   -2.9858 H   0  0  0  0  0  0  0  0  0  0  0  0
  -12.9089    6.1306    0.7460 H   0  0  0  0  0  0  0  0  0  0  0  0
  -14.0411    5.9567   -0.6376 H   0  0  0  0  0  0  0  0  0  0  0  0
  -12.4798    5.0684   -0.6376 H   0  0  0  0  0  0  0  0  0  0  0  0
  1  2  1  0
  2  3  1  0
  3  4  1  0
  4  5  1  0
  5  6  1  0
  6  7  1  0
  7  8  1  0
  7  9  1  0
  2 10  1  0
 10 11  1  0
 11 12  1  0
 12 13  1  0
 13 14  1  6
 13 15  1  0
 15 16  1  0
 16 17  1  0
 17 18  2  0
 18 19  1  0
 19 20  1  0
 20 21  1  0
 21 22  1  0
 22 23  1  0
 22 24  1  0
 24 25  1  0
 24 26  1  0
 19 27  1  0
 27 28  1  1
 27 29  1  0
 29 30  1  0
 30 31  1  0
 31 32  1  1
  7  5  1  0
 31 10  1  0
 31 13  1  0
 27 15  1  0
 24 18  1  0
  1 33  1  0
  1 34  1  0
  1 35  1  0
  2 36  1  6
  3 37  1  0
  3 38  1  0
  4 39  1  0
  4 40  1  0
  5 41  1  1
  8 42  1  0
  8 43  1  0
  8 44  1  0
  9 45  1  0
  9 46  1  0
  9 47  1  0
 10 48  1  6
 11 49  1  0
 11 50  1  0
 12 51  1  0
 12 52  1  0
 14 53  1  0
 14 54  1  0
 14 55  1  0
 15 56  1  1
 16 57  1  0
 16 58  1  0
 17 59  1  0
 19 60  1  6
 20 61  1  0
 20 62  1  0
 21 63  1  0
 21 64  1  0
 22 65  1  6
 23 66  1  0
 25 67  1  0
 25 68  1  0
 25 69  1  0
 26 70  1  0
 26 71  1  0
 26 72  1  0
 28 73  1  0
 28 74  1  0
 28 75  1  0
 29 76  1  0
 29 77  1  0
 30 78  1  0
 30 79  1  0
 32 80  1  0
 32 81  1  0
 32 82  1  0
M  END
>  <meeko>  (17) 
{"is_sidechain": [false], "intermolecular_energy": 2.731, "internal_energy": -0.839}

$$$$
