EPH_relaxed_0001_pdb2pqr_Repair_14_r2_0001_out
     RDKit          3D

 82 86  0  0  0  0  0  0  0  0999 V2000
   -1.7060    8.5900   -1.8990 C   0  0  0  0  0  0  0  0  0  0  0  0
   -2.0740    9.1060   -0.5050 C   0  0  2  0  0  0  0  0  0  0  0  0
   -3.5660    9.4790   -0.4000 C   0  0  0  0  0  0  0  0  0  0  0  0
   -4.4950    8.2700   -0.2670 C   0  0  0  0  0  0  0  0  0  0  0  0
   -5.2040    7.9710   -1.5530 C   0  0  2  0  0  0  0  0  0  0  0  0
   -6.3770    8.7620   -1.7880 O   0  0  0  0  0  0  0  0  0  0  0  0
   -6.5870    7.3510   -1.6220 C   0  0  0  0  0  0  0  0  0  0  0  0
   -7.3430    6.9910   -0.3810 C   0  0  0  0  0  0  0  0  0  0  0  0
   -6.9960    6.6490   -2.8800 C   0  0  0  0  0  0  0  0  0  0  0  0
   -1.2100   10.3100   -0.1520 C   0  0  1  0  0  0  0  0  0  0  0  0
   -0.1660    9.9940    0.9530 C   0  0  0  0  0  0  0  0  0  0  0  0
    1.1010   10.8230    0.6220 C   0  0  0  0  0  0  0  0  0  0  0  0
    0.6380   11.8310   -0.4560 C   0  0  1  0  0  0  0  0  0  0  0  0
   -0.0590   12.9780    0.3410 C   0  0  0  0  0  0  0  0  0  0  0  0
    1.7470   12.3810   -1.4090 C   0  0  2  0  0  0  0  0  0  0  0  0
    2.8590   13.1900   -0.7180 C   0  0  0  0  0  0  0  0  0  0  0  0
    2.6110   14.6590   -0.6180 C   0  0  0  0  0  0  0  0  0  0  0  0
    1.6810   15.3440   -1.3090 C   0  0  0  0  0  0  0  0  0  0  0  0
    0.8240   14.6520   -2.3760 C   0  0  1  0  0  0  0  0  0  0  0  0
    0.7830   15.5270   -3.6560 C   0  0  0  0  0  0  0  0  0  0  0  0
    0.3240   16.9540   -3.3740 C   0  0  0  0  0  0  0  0  0  0  0  0
    1.2360   17.6290   -2.3530 C   0  0  2  0  0  0  0  0  0  0  0  0
    2.5310   17.8020   -2.9340 O   0  0  0  0  0  0  0  0  0  0  0  0
    1.3620   16.8320   -1.0240 C   0  0  0  0  0  0  0  0  0  0  0  0
    0.0240   16.9020   -0.2460 C   0  0  0  0  0  0  0  0  0  0  0  0
    2.4170   17.5470   -0.1370 C   0  0  0  0  0  0  0  0  0  0  0  0
    1.1910   13.1360   -2.6840 C   0  0  1  0  0  0  0  0  0  0  0  0
    2.3120   13.0690   -3.7660 C   0  0  0  0  0  0  0  0  0  0  0  0
   -0.0670   12.4180   -3.3030 C   0  0  0  0  0  0  0  0  0  0  0  0
   -1.0660   11.7900   -2.3120 C   0  0  0  0  0  0  0  0  0  0  0  0
   -0.3410   10.9190   -1.2810 C   0  0  2  0  0  0  0  0  0  0  0  0
    0.3510    9.7430   -2.0510 C   0  0  0  0  0  0  0  0  0  0  0  0
   -1.0697    7.6978   -1.8036 H   0  0  0  0  0  0  0  0  0  0  0  0
   -2.6232    8.3293   -2.4474 H   0  0  0  0  0  0  0  0  0  0  0  0
   -1.1607    9.3723   -2.4474 H   0  0  0  0  0  0  0  0  0  0  0  0
   -1.8861    8.2915    0.2101 H   0  0  0  0  0  0  0  0  0  0  0  0
   -3.7022   10.1203    0.4832 H   0  0  0  0  0  0  0  0  0  0  0  0
   -3.8360    9.9902   -1.3358 H   0  0  0  0  0  0  0  0  0  0  0  0
   -3.8986    7.3925    0.0235 H   0  0  0  0  0  0  0  0  0  0  0  0
   -5.2526    8.5022    0.4960 H   0  0  0  0  0  0  0  0  0  0  0  0
   -4.2541    7.7121   -2.0435 H   0  0  0  0  0  0  0  0  0  0  0  0
   -6.7520    7.2724    0.5030 H   0  0  0  0  0  0  0  0  0  0  0  0
   -8.3024    7.5289   -0.3671 H   0  0  0  0  0  0  0  0  0  0  0  0
   -7.5301    5.9071   -0.3671 H   0  0  0  0  0  0  0  0  0  0  0  0
   -7.5347    5.7244   -2.6254 H   0  0  0  0  0  0  0  0  0  0  0  0
   -7.6529    7.3056   -3.4693 H   0  0  0  0  0  0  0  0  0  0  0  0
   -6.1008    6.4014   -3.4693 H   0  0  0  0  0  0  0  0  0  0  0  0
   -1.9971   11.0200    0.1419 H   0  0  0  0  0  0  0  0  0  0  0  0
   -0.5596   10.2813    1.9392 H   0  0  0  0  0  0  0  0  0  0  0  0
    0.0629    8.9185    0.9839 H   0  0  0  0  0  0  0  0  0  0  0  0
    1.4643   11.3505    1.5163 H   0  0  0  0  0  0  0  0  0  0  0  0
    1.9324   10.1926    0.2736 H   0  0  0  0  0  0  0  0  0  0  0  0
    0.0523   12.7949    1.4199 H   0  0  0  0  0  0  0  0  0  0  0  0
    0.4073   13.9401    0.0824 H   0  0  0  0  0  0  0  0  0  0  0  0
   -1.1278   13.0073    0.0824 H   0  0  0  0  0  0  0  0  0  0  0  0
    2.2270   11.4587   -1.7682 H   0  0  0  0  0  0  0  0  0  0  0  0
    2.9825   12.7960    0.3016 H   0  0  0  0  0  0  0  0  0  0  0  0
    3.7544   13.0747   -1.3464 H   0  0  0  0  0  0  0  0  0  0  0  0
    3.2418   15.2297    0.0794 H   0  0  0  0  0  0  0  0  0  0  0  0
   -0.1861   14.5701   -1.9482 H   0  0  0  0  0  0  0  0  0  0  0  0
    1.7921   15.5609   -4.0926 H   0  0  0  0  0  0  0  0  0  0  0  0
    0.0579   15.0734   -4.3477 H   0  0  0  0  0  0  0  0  0  0  0  0
    0.3438   17.5302   -4.3108 H   0  0  0  0  0  0  0  0  0  0  0  0
   -0.6964   16.9200   -2.9647 H   0  0  0  0  0  0  0  0  0  0  0  0
    0.7835   18.5983   -2.0967 H   0  0  0  0  0  0  0  0  0  0  0  0
    3.0050   18.4670   -2.4050 H   0  0  0  0  0  0  0  0  0  0  0  0
    0.2274   16.8914    0.8350 H   0  0  0  0  0  0  0  0  0  0  0  0
   -0.5058   17.8291   -0.5103 H   0  0  0  0  0  0  0  0  0  0  0  0
   -0.5996   16.0353   -0.5103 H   0  0  0  0  0  0  0  0  0  0  0  0
    2.1757   17.3835    0.9237 H   0  0  0  0  0  0  0  0  0  0  0  0
    3.4152   17.1385   -0.3532 H   0  0  0  0  0  0  0  0  0  0  0  0
    2.4075   18.6255   -0.3532 H   0  0  0  0  0  0  0  0  0  0  0  0
    3.2939   13.0103   -3.2736 H   0  0  0  0  0  0  0  0  0  0  0  0
    2.1628   12.1782   -4.3938 H   0  0  0  0  0  0  0  0  0  0  0  0
    2.2700   13.9713   -4.3938 H   0  0  0  0  0  0  0  0  0  0  0  0
   -0.6142   13.1619   -3.9007 H   0  0  0  0  0  0  0  0  0  0  0  0
    0.3382   11.5724   -3.8781 H   0  0  0  0  0  0  0  0  0  0  0  0
   -1.6066   12.5925   -1.7887 H   0  0  0  0  0  0  0  0  0  0  0  0
   -1.7676   11.1569   -2.8749 H   0  0  0  0  0  0  0  0  0  0  0  0
    0.7714    9.0285   -1.3280 H   0  0  0  0  0  0  0  0  0  0  0  0
   -0.3904    9.2319   -2.6828 H   0  0  0  0  0  0  0  0  0  0  0  0
    1.1578   10.1429   -2.6828 H   0  0  0  0  0  0  0  0  0  0  0  0
  1  2  1  0
  2  3  1  0
  3  4  1  0
  4  5  1  0
  5  6  1  0
  6  7  1  0
  7  8  1  0
  7  9  1  0
  2 10  1  0
 10 11  1  0
 11 12  1  0
 12 13  1  0
 13 14  1  1
 13 15  1  0
 15 16  1  0
 16 17  1  0
 17 18  2  0
 18 19  1  0
 19 20  1  0
 20 21  1  0
 21 22  1  0
 22 23  1  0
 22 24  1  0
 24 25  1  0
 24 26  1  0
 19 27  1  0
 27 28  1  6
 27 29  1  0
 29 30  1  0
 30 31  1  0
 31 32  1  6
  7  5  1  0
 31 10  1  0
 31 13  1  0
 27 15  1  0
 24 18  1  0
  1 33  1  0
  1 34  1  0
  1 35  1  0
  2 36  1  1
  3 37  1  0
  3 38  1  0
  4 39  1  0
  4 40  1  0
  5 41  1  6
  8 42  1  0
  8 43  1  0
  8 44  1  0
  9 45  1  0
  9 46  1  0
  9 47  1  0
 10 48  1  1
 11 49  1  0
 11 50  1  0
 12 51  1  0
 12 52  1  0
 14 53  1  0
 14 54  1  0
 14 55  1  0
 15 56  1  6
 16 57  1  0
 16 58  1  0
 17 59  1  0
 19 60  1  1
 20 61  1  0
 20 62  1  0
 21 63  1  0
 21 64  1  0
 22 65  1  1
 23 66  1  0
 25 67  1  0
 25 68  1  0
 25 69  1  0
 26 70  1  0
 26 71  1  0
 26 72  1  0
 28 73  1  0
 28 74  1  0
 28 75  1  0
 29 76  1  0
 29 77  1  0
 30 78  1  0
 30 79  1  0
 32 80  1  0
 32 81  1  0
 32 82  1  0
M  END
>  <meeko>  (1) 
{"is_sidechain": [false], "intermolecular_energy": 2.731, "internal_energy": -0.839}

$$$$
EPH_relaxed_0001_pdb2pqr_Repair_14_r2_0001_out
     RDKit          3D

 82 86  0  0  0  0  0  0  0  0999 V2000
    1.9470   19.7070   -0.5330 C   0  0  0  0  0  0  0  0  0  0  0  0
    2.3600   18.4650    0.2610 C   0  0  2  0  0  0  0  0  0  0  0  0
    3.8160   18.0480   -0.0300 C   0  0  0  0  0  0  0  0  0  0  0  0
    4.7610   18.2440    1.1590 C   0  0  0  0  0  0  0  0  0  0  0  0
    4.1210   19.0500    2.2490 C   0  0  2  0  0  0  0  0  0  0  0  0
    4.8790   20.1900    2.6740 O   0  0  0  0  0  0  0  0  0  0  0  0
    4.6870   19.1560    3.6520 C   0  0  0  0  0  0  0  0  0  0  0  0
    5.9450   18.4460    4.0420 C   0  0  0  0  0  0  0  0  0  0  0  0
    3.7670   19.5440    4.7670 C   0  0  0  0  0  0  0  0  0  0  0  0
    1.4150   17.3100   -0.0520 C   0  0  1  0  0  0  0  0  0  0  0  0
    0.1740   17.7590   -0.8690 C   0  0  0  0  0  0  0  0  0  0  0  0
   -0.1760   16.5910   -1.8280 C   0  0  0  0  0  0  0  0  0  0  0  0
    0.6550   15.3960   -1.3060 C   0  0  1  0  0  0  0  0  0  0  0  0
   -0.1690   14.8260   -0.1090 C   0  0  0  0  0  0  0  0  0  0  0  0
    0.9980   14.2840   -2.3510 C   0  0  2  0  0  0  0  0  0  0  0  0
   -0.2170   13.5520   -2.9470 C   0  0  0  0  0  0  0  0  0  0  0  0
   -0.6510   12.3300   -2.2080 C   0  0  0  0  0  0  0  0  0  0  0  0
    0.0750   11.6780   -1.2810 C   0  0  0  0  0  0  0  0  0  0  0  0
    1.5130   12.1060   -0.9620 C   0  0  1  0  0  0  0  0  0  0  0  0
    2.4280   10.8540   -0.9170 C   0  0  0  0  0  0  0  0  0  0  0  0
    1.9110    9.7850    0.0420 C   0  0  0  0  0  0  0  0  0  0  0  0
    0.5010    9.3440   -0.3420 C   0  0  2  0  0  0  0  0  0  0  0  0
    0.5570    8.6650   -1.6010 O   0  0  0  0  0  0  0  0  0  0  0  0
   -0.5080   10.5230   -0.4290 C   0  0  0  0  0  0  0  0  0  0  0  0
   -0.7980   11.0660    0.9920 C   0  0  0  0  0  0  0  0  0  0  0  0
   -1.8540    9.9620   -0.9620 C   0  0  0  0  0  0  0  0  0  0  0  0
    2.1090   13.2650   -1.8710 C   0  0  1  0  0  0  0  0  0  0  0  0
    2.7420   12.6570   -3.1600 C   0  0  0  0  0  0  0  0  0  0  0  0
    3.2800   13.9770   -1.0950 C   0  0  0  0  0  0  0  0  0  0  0  0
    2.8900   15.1450   -0.1690 C   0  0  0  0  0  0  0  0  0  0  0  0
    1.9780   16.1390   -0.8950 C   0  0  2  0  0  0  0  0  0  0  0  0
    2.7880   16.7450   -2.0920 C   0  0  0  0  0  0  0  0  0  0  0  0
    1.6784   20.5149    0.1635 H   0  0  0  0  0  0  0  0  0  0  0  0
    2.7852   20.0327   -1.1665 H   0  0  0  0  0  0  0  0  0  0  0  0
    1.0807   19.4659   -1.1665 H   0  0  0  0  0  0  0  0  0  0  0  0
    2.2961   18.7185    1.3295 H   0  0  0  0  0  0  0  0  0  0  0  0
    3.8236   16.9838   -0.3081 H   0  0  0  0  0  0  0  0  0  0  0  0
    4.1804   18.6959   -0.8409 H   0  0  0  0  0  0  0  0  0  0  0  0
    5.0380   17.2581    1.5605 H   0  0  0  0  0  0  0  0  0  0  0  0
    5.6485   18.7892    0.8054 H   0  0  0  0  0  0  0  0  0  0  0  0
    3.1165   18.8024    1.8752 H   0  0  0  0  0  0  0  0  0  0  0  0
    6.0179   18.4049    5.1388 H   0  0  0  0  0  0  0  0  0  0  0  0
    5.9295   17.4234    3.6370 H   0  0  0  0  0  0  0  0  0  0  0  0
    6.8124   18.9877    3.6370 H   0  0  0  0  0  0  0  0  0  0  0  0
    4.2535   19.3388    5.7320 H   0  0  0  0  0  0  0  0  0  0  0  0
    3.5347   20.6167    4.6942 H   0  0  0  0  0  0  0  0  0  0  0  0
    2.8367   18.9616    4.6942 H   0  0  0  0  0  0  0  0  0  0  0  0
    1.1980   16.9666    0.9702 H   0  0  0  0  0  0  0  0  0  0  0  0
   -0.6709   17.9615   -0.1943 H   0  0  0  0  0  0  0  0  0  0  0  0
    0.3828   18.6819   -1.4299 H   0  0  0  0  0  0  0  0  0  0  0  0
   -1.2515   16.3637   -1.7869 H   0  0  0  0  0  0  0  0  0  0  0  0
    0.0508   16.8304   -2.8774 H   0  0  0  0  0  0  0  0  0  0  0  0
    0.2915   15.1445    0.8378 H   0  0  0  0  0  0  0  0  0  0  0  0
   -1.2005   15.2045   -0.1607 H   0  0  0  0  0  0  0  0  0  0  0  0
   -0.1786   13.7273   -0.1607 H   0  0  0  0  0  0  0  0  0  0  0  0
    1.4327   14.8634   -3.1788 H   0  0  0  0  0  0  0  0  0  0  0  0
   -1.0621   14.2558   -2.9658 H   0  0  0  0  0  0  0  0  0  0  0  0
    0.0937   13.2096   -3.9451 H   0  0  0  0  0  0  0  0  0  0  0  0
   -1.6483   11.9284   -2.4406 H   0  0  0  0  0  0  0  0  0  0  0  0
    1.4768   12.5776    0.0311 H   0  0  0  0  0  0  0  0  0  0  0  0
    2.4857   10.4230   -1.9274 H   0  0  0  0  0  0  0  0  0  0  0  0
    3.4163   11.1757   -0.5568 H   0  0  0  0  0  0  0  0  0  0  0  0
    2.5826    8.9145    0.0068 H   0  0  0  0  0  0  0  0  0  0  0  0
    1.8825   10.2079    1.0571 H   0  0  0  0  0  0  0  0  0  0  0  0
    0.1362    8.6774    0.4534 H   0  0  0  0  0  0  0  0  0  0  0  0
    1.4890    8.4500   -1.7780 H   0  0  0  0  0  0  0  0  0  0  0  0
   -0.4184   10.3551    1.7407 H   0  0  0  0  0  0  0  0  0  0  0  0
   -0.2986   12.0374    1.1223 H   0  0  0  0  0  0  0  0  0  0  0  0
   -1.8831   11.1912    1.1223 H   0  0  0  0  0  0  0  0  0  0  0  0
   -2.5005    9.6925   -0.1138 H   0  0  0  0  0  0  0  0  0  0  0  0
   -2.3531   10.7270   -1.5749 H   0  0  0  0  0  0  0  0  0  0  0  0
   -1.6620    9.0690   -1.5749 H   0  0  0  0  0  0  0  0  0  0  0  0
    3.5091   11.9202   -2.8794 H   0  0  0  0  0  0  0  0  0  0  0  0
    1.9596   12.1632   -3.7549 H   0  0  0  0  0  0  0  0  0  0  0  0
    3.2039   13.4587   -3.7549 H   0  0  0  0  0  0  0  0  0  0  0  0
    3.7814   13.2165   -0.4784 H   0  0  0  0  0  0  0  0  0  0  0  0
    3.9112   14.4267   -1.8756 H   0  0  0  0  0  0  0  0  0  0  0  0
    2.3611   14.7467    0.7094 H   0  0  0  0  0  0  0  0  0  0  0  0
    3.8064   15.6698    0.1387 H   0  0  0  0  0  0  0  0  0  0  0  0
    3.6118   17.3613   -1.7026 H   0  0  0  0  0  0  0  0  0  0  0  0
    3.1984   15.9304   -2.7068 H   0  0  0  0  0  0  0  0  0  0  0  0
    2.1224   17.3687   -2.7068 H   0  0  0  0  0  0  0  0  0  0  0  0
  1  2  1  0
  2  3  1  0
  3  4  1  0
  4  5  1  0
  5  6  1  0
  6  7  1  0
  7  8  1  0
  7  9  1  0
  2 10  1  0
 10 11  1  0
 11 12  1  0
 12 13  1  0
 13 14  1  1
 13 15  1  0
 15 16  1  0
 16 17  1  0
 17 18  2  0
 18 19  1  0
 19 20  1  0
 20 21  1  0
 21 22  1  0
 22 23  1  0
 22 24  1  0
 24 25  1  0
 24 26  1  0
 19 27  1  0
 27 28  1  6
 27 29  1  0
 29 30  1  0
 30 31  1  0
 31 32  1  6
  7  5  1  0
 31 10  1  0
 31 13  1  0
 27 15  1  0
 24 18  1  0
  1 33  1  0
  1 34  1  0
  1 35  1  0
  2 36  1  1
  3 37  1  0
  3 38  1  0
  4 39  1  0
  4 40  1  0
  5 41  1  1
  8 42  1  0
  8 43  1  0
  8 44  1  0
  9 45  1  0
  9 46  1  0
  9 47  1  0
 10 48  1  1
 11 49  1  0
 11 50  1  0
 12 51  1  0
 12 52  1  0
 14 53  1  0
 14 54  1  0
 14 55  1  0
 15 56  1  6
 16 57  1  0
 16 58  1  0
 17 59  1  0
 19 60  1  1
 20 61  1  0
 20 62  1  0
 21 63  1  0
 21 64  1  0
 22 65  1  1
 23 66  1  0
 25 67  1  0
 25 68  1  0
 25 69  1  0
 26 70  1  0
 26 71  1  0
 26 72  1  0
 28 73  1  0
 28 74  1  0
 28 75  1  0
 29 76  1  0
 29 77  1  0
 30 78  1  0
 30 79  1  0
 32 80  1  0
 32 81  1  0
 32 82  1  0
M  END
>  <meeko>  (2) 
{"is_sidechain": [false], "intermolecular_energy": 2.731, "internal_energy": -0.839}

$$$$
EPH_relaxed_0001_pdb2pqr_Repair_14_r2_0001_out
     RDKit          3D

 82 86  0  0  0  0  0  0  0  0999 V2000
    1.8730   18.3710   -1.9810 C   0  0  0  0  0  0  0  0  0  0  0  0
    1.5350   17.3620   -0.8800 C   0  0  2  0  0  0  0  0  0  0  0  0
    2.7730   16.9760   -0.0450 C   0  0  0  0  0  0  0  0  0  0  0  0
    3.7240   18.1460    0.2200 C   0  0  0  0  0  0  0  0  0  0  0  0
    3.4660   18.7790    1.5540 C   0  0  2  0  0  0  0  0  0  0  0  0
    3.8970   20.1410    1.6640 O   0  0  0  0  0  0  0  0  0  0  0  0
    4.5690   19.1940    2.5110 C   0  0  0  0  0  0  0  0  0  0  0  0
    6.0120   18.9920    2.1720 C   0  0  0  0  0  0  0  0  0  0  0  0
    4.2380   19.3430    3.9630 C   0  0  0  0  0  0  0  0  0  0  0  0
    0.9100   16.1140   -1.4920 C   0  0  1  0  0  0  0  0  0  0  0  0
    0.6660   16.2550   -3.0190 C   0  0  0  0  0  0  0  0  0  0  0  0
    0.9070   14.8560   -3.6420 C   0  0  0  0  0  0  0  0  0  0  0  0
    0.9530   13.8930   -2.4330 C   0  0  1  0  0  0  0  0  0  0  0  0
   -0.5420   13.6180   -2.0810 C   0  0  0  0  0  0  0  0  0  0  0  0
    1.7520   12.5650   -2.6380 C   0  0  2  0  0  0  0  0  0  0  0  0
    1.1960   11.6310   -3.7280 C   0  0  0  0  0  0  0  0  0  0  0  0
    0.1950   10.6280   -3.2590 C   0  0  0  0  0  0  0  0  0  0  0  0
   -0.0320   10.2900   -1.9760 C   0  0  0  0  0  0  0  0  0  0  0  0
    0.8280   10.8700   -0.8450 C   0  0  1  0  0  0  0  0  0  0  0  0
    1.2550    9.7300    0.1170 C   0  0  0  0  0  0  0  0  0  0  0  0
    0.0660    8.9290    0.6390 C   0  0  0  0  0  0  0  0  0  0  0  0
   -0.7300    8.3210   -0.5130 C   0  0  2  0  0  0  0  0  0  0  0  0
    0.0790    7.3350   -1.1620 O   0  0  0  0  0  0  0  0  0  0  0  0
   -1.2060    9.3740   -1.5520 C   0  0  0  0  0  0  0  0  0  0  0  0
   -2.3120   10.2590   -0.9270 C   0  0  0  0  0  0  0  0  0  0  0  0
   -1.8720    8.6140   -2.7310 C   0  0  0  0  0  0  0  0  0  0  0  0
    2.0520   11.7760   -1.2990 C   0  0  1  0  0  0  0  0  0  0  0  0
    3.3000   10.8830   -1.5790 C   0  0  0  0  0  0  0  0  0  0  0  0
    2.4480   12.7350   -0.1150 C   0  0  0  0  0  0  0  0  0  0  0  0
    1.7080   14.0840   -0.0360 C   0  0  0  0  0  0  0  0  0  0  0  0
    1.7160   14.7940   -1.3940 C   0  0  2  0  0  0  0  0  0  0  0  0
    3.2060   15.1030   -1.7630 C   0  0  0  0  0  0  0  0  0  0  0  0
    2.1908   19.3197   -1.5239 H   0  0  0  0  0  0  0  0  0  0  0  0
    2.6871   17.9738   -2.6050 H   0  0  0  0  0  0  0  0  0  0  0  0
    0.9839   18.5444   -2.6050 H   0  0  0  0  0  0  0  0  0  0  0  0
    0.8158   17.8430   -0.2008 H   0  0  0  0  0  0  0  0  0  0  0  0
    2.4301   16.5808    0.9226 H   0  0  0  0  0  0  0  0  0  0  0  0
    3.3343   16.2302   -0.6270 H   0  0  0  0  0  0  0  0  0  0  0  0
    4.7597   17.7762    0.1952 H   0  0  0  0  0  0  0  0  0  0  0  0
    3.5580   18.9058   -0.5579 H   0  0  0  0  0  0  0  0  0  0  0  0
    2.5587   18.1726    1.6923 H   0  0  0  0  0  0  0  0  0  0  0  0
    6.5984   18.9099    3.0990 H   0  0  0  0  0  0  0  0  0  0  0  0
    6.1248   18.0693    1.5839 H   0  0  0  0  0  0  0  0  0  0  0  0
    6.3738   19.8483    1.5839 H   0  0  0  0  0  0  0  0  0  0  0  0
    5.0744   18.9665    4.5702 H   0  0  0  0  0  0  0  0  0  0  0  0
    4.0669   20.4050    4.1930 H   0  0  0  0  0  0  0  0  0  0  0  0
    3.3295   18.7670    4.1930 H   0  0  0  0  0  0  0  0  0  0  0  0
   -0.0017   16.0457   -0.8804 H   0  0  0  0  0  0  0  0  0  0  0  0
   -0.3672   16.5812   -3.2089 H   0  0  0  0  0  0  0  0  0  0  0  0
    1.3403   17.0045   -3.4590 H   0  0  0  0  0  0  0  0  0  0  0  0
    0.0851   14.5868   -4.3217 H   0  0  0  0  0  0  0  0  0  0  0  0
    1.8295   14.8190   -4.2399 H   0  0  0  0  0  0  0  0  0  0  0  0
   -0.6632   13.5957   -0.9879 H   0  0  0  0  0  0  0  0  0  0  0  0
   -1.1709   14.4155   -2.5035 H   0  0  0  0  0  0  0  0  0  0  0  0
   -0.8459   12.6489   -2.5035 H   0  0  0  0  0  0  0  0  0  0  0  0
    2.7184   12.9270   -3.0187 H   0  0  0  0  0  0  0  0  0  0  0  0
    0.7175   12.2542   -4.4978 H   0  0  0  0  0  0  0  0  0  0  0  0
    2.0546   11.0527   -4.0999 H   0  0  0  0  0  0  0  0  0  0  0  0
   -0.4084   10.1221   -4.0271 H   0  0  0  0  0  0  0  0  0  0  0  0
    0.1865   11.5875   -0.3125 H   0  0  0  0  0  0  0  0  0  0  0  0
    1.9302    9.0486   -0.4214 H   0  0  0  0  0  0  0  0  0  0  0  0
    1.7522   10.1922    0.9826 H   0  0  0  0  0  0  0  0  0  0  0  0
    0.4336    8.1210    1.2886 H   0  0  0  0  0  0  0  0  0  0  0  0
   -0.5931    9.6057    1.2026 H   0  0  0  0  0  0  0  0  0  0  0  0
   -1.6381    7.8709   -0.0854 H   0  0  0  0  0  0  0  0  0  0  0  0
    0.8720    7.1990   -0.6170 H   0  0  0  0  0  0  0  0  0  0  0  0
   -2.2470   10.2070    0.1698 H   0  0  0  0  0  0  0  0  0  0  0  0
   -2.1762   11.3006   -1.2534 H   0  0  0  0  0  0  0  0  0  0  0  0
   -3.2985    9.8981   -1.2534 H   0  0  0  0  0  0  0  0  0  0  0  0
   -2.5482    7.8423   -2.3345 H   0  0  0  0  0  0  0  0  0  0  0  0
   -2.4453    9.3226   -3.3469 H   0  0  0  0  0  0  0  0  0  0  0  0
   -1.0943    8.1387   -3.3469 H   0  0  0  0  0  0  0  0  0  0  0  0
    3.7447   10.5648   -0.6246 H   0  0  0  0  0  0  0  0  0  0  0  0
    2.9950    9.9968   -2.1549 H   0  0  0  0  0  0  0  0  0  0  0  0
    4.0403   11.4577   -2.1549 H   0  0  0  0  0  0  0  0  0  0  0  0
    2.2603   12.1970    0.8259 H   0  0  0  0  0  0  0  0  0  0  0  0
    3.5015   12.9949   -0.2954 H   0  0  0  0  0  0  0  0  0  0  0  0
    0.6668   13.9059    0.2709 H   0  0  0  0  0  0  0  0  0  0  0  0
    2.2214   14.7234    0.6972 H   0  0  0  0  0  0  0  0  0  0  0  0
    3.7942   15.2250   -0.8415 H   0  0  0  0  0  0  0  0  0  0  0  0
    3.6176   14.2711   -2.3534 H   0  0  0  0  0  0  0  0  0  0  0  0
    3.2529   16.0300   -2.3534 H   0  0  0  0  0  0  0  0  0  0  0  0
  1  2  1  0
  2  3  1  0
  3  4  1  0
  4  5  1  0
  5  6  1  0
  6  7  1  0
  7  8  1  0
  7  9  1  0
  2 10  1  0
 10 11  1  0
 11 12  1  0
 12 13  1  0
 13 14  1  1
 13 15  1  0
 15 16  1  0
 16 17  1  0
 17 18  2  0
 18 19  1  0
 19 20  1  0
 20 21  1  0
 21 22  1  0
 22 23  1  0
 22 24  1  0
 24 25  1  0
 24 26  1  0
 19 27  1  0
 27 28  1  6
 27 29  1  0
 29 30  1  0
 30 31  1  0
 31 32  1  6
  7  5  1  0
 31 10  1  0
 31 13  1  0
 27 15  1  0
 24 18  1  0
  1 33  1  0
  1 34  1  0
  1 35  1  0
  2 36  1  1
  3 37  1  0
  3 38  1  0
  4 39  1  0
  4 40  1  0
  5 41  1  1
  8 42  1  0
  8 43  1  0
  8 44  1  0
  9 45  1  0
  9 46  1  0
  9 47  1  0
 10 48  1  1
 11 49  1  0
 11 50  1  0
 12 51  1  0
 12 52  1  0
 14 53  1  0
 14 54  1  0
 14 55  1  0
 15 56  1  6
 16 57  1  0
 16 58  1  0
 17 59  1  0
 19 60  1  1
 20 61  1  0
 20 62  1  0
 21 63  1  0
 21 64  1  0
 22 65  1  1
 23 66  1  0
 25 67  1  0
 25 68  1  0
 25 69  1  0
 26 70  1  0
 26 71  1  0
 26 72  1  0
 28 73  1  0
 28 74  1  0
 28 75  1  0
 29 76  1  0
 29 77  1  0
 30 78  1  0
 30 79  1  0
 32 80  1  0
 32 81  1  0
 32 82  1  0
M  END
>  <meeko>  (3) 
{"is_sidechain": [false], "intermolecular_energy": 2.731, "internal_energy": -0.839}

$$$$
EPH_relaxed_0001_pdb2pqr_Repair_14_r2_0001_out
     RDKit          3D

 82 86  0  0  0  0  0  0  0  0999 V2000
    2.2360   18.1110   -2.7700 C   0  0  0  0  0  0  0  0  0  0  0  0
    1.0030   17.6770   -1.9720 C   0  0  2  0  0  0  0  0  0  0  0  0
    1.2540   17.7130   -0.4510 C   0  0  0  0  0  0  0  0  0  0  0  0
    0.9180   19.0590    0.1960 C   0  0  0  0  0  0  0  0  0  0  0  0
   -0.5310   19.1470    0.5710 C   0  0  2  0  0  0  0  0  0  0  0  0
   -1.3960   18.2800   -0.1740 O   0  0  0  0  0  0  0  0  0  0  0  0
   -1.6030   19.6900   -0.3560 C   0  0  0  0  0  0  0  0  0  0  0  0
   -1.2710   20.1810   -1.7300 C   0  0  0  0  0  0  0  0  0  0  0  0
   -2.8790   20.1940    0.2440 C   0  0  0  0  0  0  0  0  0  0  0  0
    0.5760   16.2770   -2.3970 C   0  0  1  0  0  0  0  0  0  0  0  0
    0.6510   16.0700   -3.9340 C   0  0  0  0  0  0  0  0  0  0  0  0
    1.0760   14.5980   -4.1660 C   0  0  0  0  0  0  0  0  0  0  0  0
    0.9110   13.9210   -2.7860 C   0  0  1  0  0  0  0  0  0  0  0  0
   -0.6120   13.5960   -2.6790 C   0  0  0  0  0  0  0  0  0  0  0  0
    1.7910   12.6550   -2.5260 C   0  0  2  0  0  0  0  0  0  0  0  0
    1.5170   11.4670   -3.4640 C   0  0  0  0  0  0  0  0  0  0  0  0
    0.4840   10.5010   -2.9850 C   0  0  0  0  0  0  0  0  0  0  0  0
    0.0080   10.4240   -1.7290 C   0  0  0  0  0  0  0  0  0  0  0  0
    0.5860   11.3030   -0.6120 C   0  0  1  0  0  0  0  0  0  0  0  0
    0.8520   10.4360    0.6460 C   0  0  0  0  0  0  0  0  0  0  0  0
   -0.3840    9.6610    1.0940 C   0  0  0  0  0  0  0  0  0  0  0  0
   -0.8950    8.7550   -0.0240 C   0  0  2  0  0  0  0  0  0  0  0  0
    0.0740    7.7300   -0.2640 O   0  0  0  0  0  0  0  0  0  0  0  0
   -1.1880    9.5180   -1.3460 C   0  0  0  0  0  0  0  0  0  0  0  0
   -2.4380   10.4140   -1.1640 C   0  0  0  0  0  0  0  0  0  0  0  0
   -1.5590    8.4700   -2.4290 C   0  0  0  0  0  0  0  0  0  0  0  0
    1.8380   12.1970   -1.0120 C   0  0  1  0  0  0  0  0  0  0  0  0
    3.1540   11.3800   -0.8350 C   0  0  0  0  0  0  0  0  0  0  0  0
    1.9360   13.4170   -0.0210 C   0  0  0  0  0  0  0  0  0  0  0  0
    1.1380   14.6810   -0.3940 C   0  0  0  0  0  0  0  0  0  0  0  0
    1.3990   15.0850   -1.8480 C   0  0  2  0  0  0  0  0  0  0  0  0
    2.9190   15.4400   -1.9810 C   0  0  0  0  0  0  0  0  0  0  0  0
    3.0409   18.3943   -2.0759 H   0  0  0  0  0  0  0  0  0  0  0  0
    2.5745   17.2780   -3.4036 H   0  0  0  0  0  0  0  0  0  0  0  0
    1.9781   18.9724   -3.4036 H   0  0  0  0  0  0  0  0  0  0  0  0
    0.1975   18.3936   -2.1904 H   0  0  0  0  0  0  0  0  0  0  0  0
    0.6350   16.9362    0.0217 H   0  0  0  0  0  0  0  0  0  0  0  0
    2.3299   17.5424   -0.2984 H   0  0  0  0  0  0  0  0  0  0  0  0
    1.5290   19.1813    1.1025 H   0  0  0  0  0  0  0  0  0  0  0  0
    1.1325   19.8536   -0.5338 H   0  0  0  0  0  0  0  0  0  0  0  0
   -0.2715   19.3781    1.6147 H   0  0  0  0  0  0  0  0  0  0  0  0
   -0.6562   21.0902   -1.6559 H   0  0  0  0  0  0  0  0  0  0  0  0
   -0.7123   19.4038   -2.2721 H   0  0  0  0  0  0  0  0  0  0  0  0
   -2.2004   20.4100   -2.2721 H   0  0  0  0  0  0  0  0  0  0  0  0
   -2.8049   20.1648    1.3411 H   0  0  0  0  0  0  0  0  0  0  0  0
   -3.0548   21.2291   -0.0842 H   0  0  0  0  0  0  0  0  0  0  0  0
   -3.7147   19.5584   -0.0842 H   0  0  0  0  0  0  0  0  0  0  0  0
   -0.4399   16.2584   -1.9756 H   0  0  0  0  0  0  0  0  0  0  0  0
   -0.3325   16.2568   -4.3899 H   0  0  0  0  0  0  0  0  0  0  0  0
    1.3696   16.7657   -4.3919 H   0  0  0  0  0  0  0  0  0  0  0  0
    0.4259   14.1195   -4.9133 H   0  0  0  0  0  0  0  0  0  0  0  0
    2.1036   14.5166   -4.5498 H   0  0  0  0  0  0  0  0  0  0  0  0
   -0.9002   13.5345   -1.6192 H   0  0  0  0  0  0  0  0  0  0  0  0
   -1.1920   14.3906   -3.1712 H   0  0  0  0  0  0  0  0  0  0  0  0
   -0.8171   12.6339   -3.1712 H   0  0  0  0  0  0  0  0  0  0  0  0
    2.7993   13.0123   -2.7821 H   0  0  0  0  0  0  0  0  0  0  0  0
    1.1838   11.8684   -4.4324 H   0  0  0  0  0  0  0  0  0  0  0  0
    2.4588   10.9015   -3.5219 H   0  0  0  0  0  0  0  0  0  0  0  0
    0.0777    9.7922   -3.7216 H   0  0  0  0  0  0  0  0  0  0  0  0
   -0.1842   12.0561   -0.3893 H   0  0  0  0  0  0  0  0  0  0  0  0
    1.6541    9.7189    0.4170 H   0  0  0  0  0  0  0  0  0  0  0  0
    1.1365   11.1134    1.4646 H   0  0  0  0  0  0  0  0  0  0  0  0
   -0.1252    9.0442    1.9673 H   0  0  0  0  0  0  0  0  0  0  0  0
   -1.1751   10.3805    1.3521 H   0  0  0  0  0  0  0  0  0  0  0  0
   -1.8523    8.3273    0.3087 H   0  0  0  0  0  0  0  0  0  0  0  0
   -0.2430    7.1950   -1.0120 H   0  0  0  0  0  0  0  0  0  0  0  0
   -2.6349   10.5551   -0.0910 H   0  0  0  0  0  0  0  0  0  0  0  0
   -2.2602   11.3916   -1.6359 H   0  0  0  0  0  0  0  0  0  0  0  0
   -3.3067    9.9317   -1.6359 H   0  0  0  0  0  0  0  0  0  0  0  0
   -1.8881    7.5402   -1.9420 H   0  0  0  0  0  0  0  0  0  0  0  0
   -2.3726    8.8632   -3.0563 H   0  0  0  0  0  0  0  0  0  0  0  0
   -0.6792    8.2638   -3.0563 H   0  0  0  0  0  0  0  0  0  0  0  0
    3.3635   11.2500    0.2370 H   0  0  0  0  0  0  0  0  0  0  0  0
    3.0398   10.3937   -1.3086 H   0  0  0  0  0  0  0  0  0  0  0  0
    3.9872   11.9199   -1.3086 H   0  0  0  0  0  0  0  0  0  0  0  0
    1.5794   13.0764    0.9623 H   0  0  0  0  0  0  0  0  0  0  0  0
    2.9917   13.7250   -0.0473 H   0  0  0  0  0  0  0  0  0  0  0  0
    0.0644   14.4803   -0.2635 H   0  0  0  0  0  0  0  0  0  0  0  0
    1.4583   15.5041    0.2616 H   0  0  0  0  0  0  0  0  0  0  0  0
    3.3605   15.5431   -0.9788 H   0  0  0  0  0  0  0  0  0  0  0  0
    3.4362   14.6385   -2.5288 H   0  0  0  0  0  0  0  0  0  0  0  0
    3.0276   16.3877   -2.5288 H   0  0  0  0  0  0  0  0  0  0  0  0
  1  2  1  0
  2  3  1  0
  3  4  1  0
  4  5  1  0
  5  6  1  0
  6  7  1  0
  7  8  1  0
  7  9  1  0
  2 10  1  0
 10 11  1  0
 11 12  1  0
 12 13  1  0
 13 14  1  1
 13 15  1  0
 15 16  1  0
 16 17  1  0
 17 18  2  0
 18 19  1  0
 19 20  1  0
 20 21  1  0
 21 22  1  0
 22 23  1  0
 22 24  1  0
 24 25  1  0
 24 26  1  0
 19 27  1  0
 27 28  1  6
 27 29  1  0
 29 30  1  0
 30 31  1  0
 31 32  1  1
  7  5  1  0
 31 10  1  0
 31 13  1  0
 27 15  1  0
 24 18  1  0
  1 33  1  0
  1 34  1  0
  1 35  1  0
  2 36  1  1
  3 37  1  0
  3 38  1  0
  4 39  1  0
  4 40  1  0
  5 41  1  1
  8 42  1  0
  8 43  1  0
  8 44  1  0
  9 45  1  0
  9 46  1  0
  9 47  1  0
 10 48  1  1
 11 49  1  0
 11 50  1  0
 12 51  1  0
 12 52  1  0
 14 53  1  0
 14 54  1  0
 14 55  1  0
 15 56  1  6
 16 57  1  0
 16 58  1  0
 17 59  1  0
 19 60  1  1
 20 61  1  0
 20 62  1  0
 21 63  1  0
 21 64  1  0
 22 65  1  1
 23 66  1  0
 25 67  1  0
 25 68  1  0
 25 69  1  0
 26 70  1  0
 26 71  1  0
 26 72  1  0
 28 73  1  0
 28 74  1  0
 28 75  1  0
 29 76  1  0
 29 77  1  0
 30 78  1  0
 30 79  1  0
 32 80  1  0
 32 81  1  0
 32 82  1  0
M  END
>  <meeko>  (4) 
{"is_sidechain": [false], "intermolecular_energy": 2.731, "internal_energy": -0.839}

$$$$
EPH_relaxed_0001_pdb2pqr_Repair_14_r2_0001_out
     RDKit          3D

 82 86  0  0  0  0  0  0  0  0999 V2000
   -3.4030    9.3250    0.5180 C   0  0  0  0  0  0  0  0  0  0  0  0
   -2.5630    9.6730   -0.7140 C   0  0  2  0  0  0  0  0  0  0  0  0
   -1.8930    8.4300   -1.3310 C   0  0  0  0  0  0  0  0  0  0  0  0
   -2.8020    7.6500   -2.2860 C   0  0  0  0  0  0  0  0  0  0  0  0
   -4.2450    7.7690   -1.8980 C   0  0  2  0  0  0  0  0  0  0  0  0
   -4.8040    6.5890   -1.3060 O   0  0  0  0  0  0  0  0  0  0  0  0
   -5.3590    6.9880   -2.5700 C   0  0  0  0  0  0  0  0  0  0  0  0
   -5.0770    6.0320   -3.6870 C   0  0  0  0  0  0  0  0  0  0  0  0
   -6.7570    7.5130   -2.4770 C   0  0  0  0  0  0  0  0  0  0  0  0
   -1.5050   10.7070   -0.3470 C   0  0  1  0  0  0  0  0  0  0  0  0
   -0.4020   10.1290    0.5790 C   0  0  0  0  0  0  0  0  0  0  0  0
    0.9250   10.8260    0.1820 C   0  0  0  0  0  0  0  0  0  0  0  0
    0.4920   12.0070   -0.7170 C   0  0  1  0  0  0  0  0  0  0  0  0
    0.0540   13.1280    0.2770 C   0  0  0  0  0  0  0  0  0  0  0  0
    1.5560   12.5250   -1.7390 C   0  0  2  0  0  0  0  0  0  0  0  0
    2.8390   13.0960   -1.1110 C   0  0  0  0  0  0  0  0  0  0  0  0
    2.8120   14.5610   -0.8260 C   0  0  0  0  0  0  0  0  0  0  0  0
    1.9170   15.4370   -1.3190 C   0  0  0  0  0  0  0  0  0  0  0  0
    0.8590   14.9940   -2.3380 C   0  0  1  0  0  0  0  0  0  0  0  0
    0.8010   16.0160   -3.5030 C   0  0  0  0  0  0  0  0  0  0  0  0
    0.5800   17.4450   -3.0170 C   0  0  0  0  0  0  0  0  0  0  0  0
    1.6840   17.8700   -2.0520 C   0  0  2  0  0  0  0  0  0  0  0  0
    2.9190   17.9470   -2.7700 O   0  0  0  0  0  0  0  0  0  0  0  0
    1.8420   16.9090   -0.8410 C   0  0  0  0  0  0  0  0  0  0  0  0
    0.6210   17.0520    0.1010 C   0  0  0  0  0  0  0  0  0  0  0  0
    3.0780   17.3710   -0.0230 C   0  0  0  0  0  0  0  0  0  0  0  0
    0.9740   13.4930   -2.8470 C   0  0  1  0  0  0  0  0  0  0  0  0
    1.9490   13.4160   -4.0620 C   0  0  0  0  0  0  0  0  0  0  0  0
   -0.4320   13.0200   -3.3760 C   0  0  0  0  0  0  0  0  0  0  0  0
   -1.3940   12.4080   -2.3400 C   0  0  0  0  0  0  0  0  0  0  0  0
   -0.6900   11.3330   -1.5060 C   0  0  2  0  0  0  0  0  0  0  0  0
   -0.2580   10.1810   -2.4760 C   0  0  0  0  0  0  0  0  0  0  0  0
   -2.8332    9.5610    1.4289 H   0  0  0  0  0  0  0  0  0  0  0  0
   -4.3334    9.9117    0.5051 H   0  0  0  0  0  0  0  0  0  0  0  0
   -3.6459    8.2522    0.5051 H   0  0  0  0  0  0  0  0  0  0  0  0
   -3.2438   10.0901   -1.4707 H   0  0  0  0  0  0  0  0  0  0  0  0
   -1.0024    8.7562   -1.8882 H   0  0  0  0  0  0  0  0  0  0  0  0
   -1.6441    7.7535   -0.5001 H   0  0  0  0  0  0  0  0  0  0  0  0
   -2.6727    8.0456   -3.3042 H   0  0  0  0  0  0  0  0  0  0  0  0
   -2.5200    6.5879   -2.2374 H   0  0  0  0  0  0  0  0  0  0  0  0
   -4.1230    8.8402   -1.6797 H   0  0  0  0  0  0  0  0  0  0  0  0
   -4.7890    5.0557   -3.2701 H   0  0  0  0  0  0  0  0  0  0  0  0
   -5.9788    5.9148   -4.3058 H   0  0  0  0  0  0  0  0  0  0  0  0
   -4.2559    6.4231   -4.3058 H   0  0  0  0  0  0  0  0  0  0  0  0
   -7.0392    7.6190   -1.4191 H   0  0  0  0  0  0  0  0  0  0  0  0
   -6.8140    8.4938   -2.9718 H   0  0  0  0  0  0  0  0  0  0  0  0
   -7.4455    6.8122   -2.9718 H   0  0  0  0  0  0  0  0  0  0  0  0
   -2.1463   11.4711    0.1165 H   0  0  0  0  0  0  0  0  0  0  0  0
   -0.6413   10.3412    1.6315 H   0  0  0  0  0  0  0  0  0  0  0  0
   -0.3240    9.0375    0.4671 H   0  0  0  0  0  0  0  0  0  0  0  0
    1.4539   11.1912    1.0747 H   0  0  0  0  0  0  0  0  0  0  0  0
    1.6173   10.1429   -0.3318 H   0  0  0  0  0  0  0  0  0  0  0  0
    0.1915   12.7762    1.3101 H   0  0  0  0  0  0  0  0  0  0  0  0
    0.6675   14.0258    0.1107 H   0  0  0  0  0  0  0  0  0  0  0  0
   -1.0056   13.3720    0.1107 H   0  0  0  0  0  0  0  0  0  0  0  0
    1.8600   11.6006   -2.2519 H   0  0  0  0  0  0  0  0  0  0  0  0
    3.0170   12.5684   -0.1623 H   0  0  0  0  0  0  0  0  0  0  0  0
    3.6351   12.9453   -1.8550 H   0  0  0  0  0  0  0  0  0  0  0  0
    3.5892   14.9582   -0.1565 H   0  0  0  0  0  0  0  0  0  0  0  0
   -0.0998   14.9898   -1.7989 H   0  0  0  0  0  0  0  0  0  0  0  0
    1.7510   15.9746   -4.0560 H   0  0  0  0  0  0  0  0  0  0  0  0
   -0.0519   15.7452   -4.1426 H   0  0  0  0  0  0  0  0  0  0  0  0
    0.5779   18.1234   -3.8829 H   0  0  0  0  0  0  0  0  0  0  0  0
   -0.3843   17.4913   -2.4897 H   0  0  0  0  0  0  0  0  0  0  0  0
    1.4029   18.8502   -1.6395 H   0  0  0  0  0  0  0  0  0  0  0  0
    3.5710   18.3720   -2.1880 H   0  0  0  0  0  0  0  0  0  0  0  0
    0.9584   17.0125    1.1472 H   0  0  0  0  0  0  0  0  0  0  0  0
    0.1231   18.0146   -0.0876 H   0  0  0  0  0  0  0  0  0  0  0  0
   -0.0858   16.2305   -0.0876 H   0  0  0  0  0  0  0  0  0  0  0  0
    2.8581   17.2888    1.0516 H   0  0  0  0  0  0  0  0  0  0  0  0
    3.9403   16.7345   -0.2705 H   0  0  0  0  0  0  0  0  0  0  0  0
    3.3114   18.4171   -0.2705 H   0  0  0  0  0  0  0  0  0  0  0  0
    2.9836   13.3343   -3.6973 H   0  0  0  0  0  0  0  0  0  0  0  0
    1.7048   12.5343   -4.6728 H   0  0  0  0  0  0  0  0  0  0  0  0
    1.8462   14.3251   -4.6728 H   0  0  0  0  0  0  0  0  0  0  0  0
   -0.9321   13.8939   -3.8190 H   0  0  0  0  0  0  0  0  0  0  0  0
   -0.2145   12.2058   -4.0830 H   0  0  0  0  0  0  0  0  0  0  0  0
   -1.7556   13.2029   -1.6711 H   0  0  0  0  0  0  0  0  0  0  0  0
   -2.2351   11.9423   -2.8745 H   0  0  0  0  0  0  0  0  0  0  0  0
    0.0686    9.3102   -1.8886 H   0  0  0  0  0  0  0  0  0  0  0  0
   -1.1106    9.8966   -3.1102 H   0  0  0  0  0  0  0  0  0  0  0  0
    0.5713   10.5274   -3.1102 H   0  0  0  0  0  0  0  0  0  0  0  0
  1  2  1  0
  2  3  1  0
  3  4  1  0
  4  5  1  0
  5  6  1  0
  6  7  1  0
  7  8  1  0
  7  9  1  0
  2 10  1  0
 10 11  1  0
 11 12  1  0
 12 13  1  0
 13 14  1  1
 13 15  1  0
 15 16  1  0
 16 17  1  0
 17 18  2  0
 18 19  1  0
 19 20  1  0
 20 21  1  0
 21 22  1  0
 22 23  1  0
 22 24  1  0
 24 25  1  0
 24 26  1  0
 19 27  1  0
 27 28  1  6
 27 29  1  0
 29 30  1  0
 30 31  1  0
 31 32  1  6
  7  5  1  0
 31 10  1  0
 31 13  1  0
 27 15  1  0
 24 18  1  0
  1 33  1  0
  1 34  1  0
  1 35  1  0
  2 36  1  6
  3 37  1  0
  3 38  1  0
  4 39  1  0
  4 40  1  0
  5 41  1  1
  8 42  1  0
  8 43  1  0
  8 44  1  0
  9 45  1  0
  9 46  1  0
  9 47  1  0
 10 48  1  1
 11 49  1  0
 11 50  1  0
 12 51  1  0
 12 52  1  0
 14 53  1  0
 14 54  1  0
 14 55  1  0
 15 56  1  6
 16 57  1  0
 16 58  1  0
 17 59  1  0
 19 60  1  1
 20 61  1  0
 20 62  1  0
 21 63  1  0
 21 64  1  0
 22 65  1  1
 23 66  1  0
 25 67  1  0
 25 68  1  0
 25 69  1  0
 26 70  1  0
 26 71  1  0
 26 72  1  0
 28 73  1  0
 28 74  1  0
 28 75  1  0
 29 76  1  0
 29 77  1  0
 30 78  1  0
 30 79  1  0
 32 80  1  0
 32 81  1  0
 32 82  1  0
M  END
>  <meeko>  (5) 
{"is_sidechain": [false], "intermolecular_energy": 2.731, "internal_energy": -0.839}

$$$$
EPH_relaxed_0001_pdb2pqr_Repair_14_r2_0001_out
     RDKit          3D

 82 86  0  0  0  0  0  0  0  0999 V2000
    3.8690   17.8320    0.6760 C   0  0  0  0  0  0  0  0  0  0  0  0
    2.7600   18.3320   -0.2540 C   0  0  2  0  0  0  0  0  0  0  0  0
    2.0500   19.5800    0.3070 C   0  0  0  0  0  0  0  0  0  0  0  0
    0.7640   19.2640    1.0750 C   0  0  0  0  0  0  0  0  0  0  0  0
   -0.4140   19.9980    0.5090 C   0  0  2  0  0  0  0  0  0  0  0  0
   -1.5070   20.1710    1.4220 O   0  0  0  0  0  0  0  0  0  0  0  0
   -1.7660   19.3520    0.2700 C   0  0  0  0  0  0  0  0  0  0  0  0
   -2.0100   17.9100    0.5900 C   0  0  0  0  0  0  0  0  0  0  0  0
   -2.6950   19.9820   -0.7200 C   0  0  0  0  0  0  0  0  0  0  0  0
    1.7450   17.2210   -0.4970 C   0  0  1  0  0  0  0  0  0  0  0  0
    0.5400   17.6890   -1.3550 C   0  0  0  0  0  0  0  0  0  0  0  0
    0.1220   16.4830   -2.2350 C   0  0  0  0  0  0  0  0  0  0  0  0
    0.8720   15.2760   -1.6240 C   0  0  1  0  0  0  0  0  0  0  0  0
    0.0060   14.8440   -0.3990 C   0  0  0  0  0  0  0  0  0  0  0  0
    1.1500   14.0760   -2.5870 C   0  0  2  0  0  0  0  0  0  0  0  0
   -0.1050   13.3830   -3.1440 C   0  0  0  0  0  0  0  0  0  0  0  0
   -0.6210   12.2440   -2.3280 C   0  0  0  0  0  0  0  0  0  0  0  0
    0.0560   11.6130   -1.3510 C   0  0  0  0  0  0  0  0  0  0  0  0
    1.5170   11.9700   -1.0470 C   0  0  1  0  0  0  0  0  0  0  0  0
    2.3500   10.6690   -0.9070 C   0  0  0  0  0  0  0  0  0  0  0  0
    1.7600    9.7040    0.1170 C   0  0  0  0  0  0  0  0  0  0  0  0
    0.3270    9.3270   -0.2510 C   0  0  2  0  0  0  0  0  0  0  0  0
    0.3480    8.5610   -1.4590 O   0  0  0  0  0  0  0  0  0  0  0  0
   -0.6040   10.5590   -0.4280 C   0  0  0  0  0  0  0  0  0  0  0  0
   -0.8670   11.2150    0.9500 C   0  0  0  0  0  0  0  0  0  0  0  0
   -1.9800   10.0480   -0.9350 C   0  0  0  0  0  0  0  0  0  0  0  0
    2.1910   13.0240   -2.0270 C   0  0  1  0  0  0  0  0  0  0  0  0
    2.7920   12.2900   -3.2650 C   0  0  0  0  0  0  0  0  0  0  0  0
    3.4000   13.7120   -1.2900 C   0  0  0  0  0  0  0  0  0  0  0  0
    3.0800   14.9640   -0.4500 C   0  0  0  0  0  0  0  0  0  0  0  0
    2.2380   15.9610   -1.2520 C   0  0  2  0  0  0  0  0  0  0  0  0
    3.0910   16.4310   -2.4790 C   0  0  0  0  0  0  0  0  0  0  0  0
    3.5603   17.9712    1.7226 H   0  0  0  0  0  0  0  0  0  0  0  0
    4.0525   16.7641    0.4867 H   0  0  0  0  0  0  0  0  0  0  0  0
    4.7908   18.4016    0.4867 H   0  0  0  0  0  0  0  0  0  0  0  0
    3.2313   18.6200   -1.2053 H   0  0  0  0  0  0  0  0  0  0  0  0
    2.7426   20.0970    0.9875 H   0  0  0  0  0  0  0  0  0  0  0  0
    1.7651   20.2019   -0.5544 H   0  0  0  0  0  0  0  0  0  0  0  0
    0.5712   18.1825    1.0179 H   0  0  0  0  0  0  0  0  0  0  0  0
    0.8996   19.5856    2.1182 H   0  0  0  0  0  0  0  0  0  0  0  0
    0.2415   20.5989   -0.1385 H   0  0  0  0  0  0  0  0  0  0  0  0
   -2.0328   17.7754    1.6815 H   0  0  0  0  0  0  0  0  0  0  0  0
   -2.9738   17.5974    0.1618 H   0  0  0  0  0  0  0  0  0  0  0  0
   -1.2027   17.2977    0.1618 H   0  0  0  0  0  0  0  0  0  0  0  0
   -3.4904   20.5214   -0.1847 H   0  0  0  0  0  0  0  0  0  0  0  0
   -2.1346   20.6872   -1.3514 H   0  0  0  0  0  0  0  0  0  0  0  0
   -3.1428   19.2005   -1.3514 H   0  0  0  0  0  0  0  0  0  0  0  0
    1.4999   16.9642    0.5441 H   0  0  0  0  0  0  0  0  0  0  0  0
   -0.2941   17.9901   -0.7042 H   0  0  0  0  0  0  0  0  0  0  0  0
    0.8103   18.5559   -1.9758 H   0  0  0  0  0  0  0  0  0  0  0  0
   -0.9660   16.3277   -2.1895 H   0  0  0  0  0  0  0  0  0  0  0  0
    0.3699   16.6348   -3.2959 H   0  0  0  0  0  0  0  0  0  0  0  0
    0.5308   15.1058    0.5316 H   0  0  0  0  0  0  0  0  0  0  0  0
   -0.9624   15.3646   -0.4327 H   0  0  0  0  0  0  0  0  0  0  0  0
   -0.1606   13.7572   -0.4327 H   0  0  0  0  0  0  0  0  0  0  0  0
    1.6258   14.5688   -3.4477 H   0  0  0  0  0  0  0  0  0  0  0  0
   -0.9034   14.1358   -3.2197 H   0  0  0  0  0  0  0  0  0  0  0  0
    0.1897   12.9537   -4.1129 H   0  0  0  0  0  0  0  0  0  0  0  0
   -1.6403   11.8910   -2.5436 H   0  0  0  0  0  0  0  0  0  0  0  0
    1.5051   12.5099   -0.0887 H   0  0  0  0  0  0  0  0  0  0  0  0
    2.3864   10.1666   -1.8849 H   0  0  0  0  0  0  0  0  0  0  0  0
    3.3547   10.9515   -0.5594 H   0  0  0  0  0  0  0  0  0  0  0  0
    2.3751    8.7926    0.1490 H   0  0  0  0  0  0  0  0  0  0  0  0
    1.7519   10.1972    1.1002 H   0  0  0  0  0  0  0  0  0  0  0  0
   -0.0851    8.7406    0.5834 H   0  0  0  0  0  0  0  0  0  0  0  0
    0.8710    7.7600   -1.2910 H   0  0  0  0  0  0  0  0  0  0  0  0
   -0.5859   10.5138    1.7495 H   0  0  0  0  0  0  0  0  0  0  0  0
   -0.2673   12.1328    1.0396 H   0  0  0  0  0  0  0  0  0  0  0  0
   -1.9346   11.4644    1.0396 H   0  0  0  0  0  0  0  0  0  0  0  0
   -2.6223    9.8095   -0.0744 H   0  0  0  0  0  0  0  0  0  0  0  0
   -2.4589   10.8282   -1.5448 H   0  0  0  0  0  0  0  0  0  0  0  0
   -1.8335    9.1443   -1.5448 H   0  0  0  0  0  0  0  0  0  0  0  0
    3.4548   11.4805   -2.9252 H   0  0  0  0  0  0  0  0  0  0  0  0
    1.9776   11.8669   -3.8714 H   0  0  0  0  0  0  0  0  0  0  0  0
    3.3674   13.0049   -3.8714 H   0  0  0  0  0  0  0  0  0  0  0  0
    3.8482   12.9657   -0.6176 H   0  0  0  0  0  0  0  0  0  0  0  0
    4.0631   14.0659   -2.0931 H   0  0  0  0  0  0  0  0  0  0  0  0
    2.5215   14.6618    0.4482 H   0  0  0  0  0  0  0  0  0  0  0  0
    4.0262   15.4496   -0.1693 H   0  0  0  0  0  0  0  0  0  0  0  0
    4.0021   16.9330   -2.1214 H   0  0  0  0  0  0  0  0  0  0  0  0
    3.3684   15.5584   -3.0886 H   0  0  0  0  0  0  0  0  0  0  0  0
    2.5015   17.1316   -3.0886 H   0  0  0  0  0  0  0  0  0  0  0  0
  1  2  1  0
  2  3  1  0
  3  4  1  0
  4  5  1  0
  5  6  1  0
  6  7  1  0
  7  8  1  0
  7  9  1  0
  2 10  1  0
 10 11  1  0
 11 12  1  0
 12 13  1  0
 13 14  1  1
 13 15  1  0
 15 16  1  0
 16 17  1  0
 17 18  2  0
 18 19  1  0
 19 20  1  0
 20 21  1  0
 21 22  1  0
 22 23  1  0
 22 24  1  0
 24 25  1  0
 24 26  1  0
 19 27  1  0
 27 28  1  6
 27 29  1  0
 29 30  1  0
 30 31  1  0
 31 32  1  6
  7  5  1  0
 31 10  1  0
 31 13  1  0
 27 15  1  0
 24 18  1  0
  1 33  1  0
  1 34  1  0
  1 35  1  0
  2 36  1  6
  3 37  1  0
  3 38  1  0
  4 39  1  0
  4 40  1  0
  5 41  1  6
  8 42  1  0
  8 43  1  0
  8 44  1  0
  9 45  1  0
  9 46  1  0
  9 47  1  0
 10 48  1  1
 11 49  1  0
 11 50  1  0
 12 51  1  0
 12 52  1  0
 14 53  1  0
 14 54  1  0
 14 55  1  0
 15 56  1  6
 16 57  1  0
 16 58  1  0
 17 59  1  0
 19 60  1  1
 20 61  1  0
 20 62  1  0
 21 63  1  0
 21 64  1  0
 22 65  1  1
 23 66  1  0
 25 67  1  0
 25 68  1  0
 25 69  1  0
 26 70  1  0
 26 71  1  0
 26 72  1  0
 28 73  1  0
 28 74  1  0
 28 75  1  0
 29 76  1  0
 29 77  1  0
 30 78  1  0
 30 79  1  0
 32 80  1  0
 32 81  1  0
 32 82  1  0
M  END
>  <meeko>  (6) 
{"is_sidechain": [false], "intermolecular_energy": 2.731, "internal_energy": -0.839}

$$$$
EPH_relaxed_0001_pdb2pqr_Repair_14_r2_0001_out
     RDKit          3D

 82 86  0  0  0  0  0  0  0  0999 V2000
    0.4440    8.8010   -2.3660 C   0  0  0  0  0  0  0  0  0  0  0  0
    1.1850    9.9450   -3.0640 C   0  0  2  0  0  0  0  0  0  0  0  0
    2.6850    9.9670   -2.7090 C   0  0  0  0  0  0  0  0  0  0  0  0
    3.5680   10.5710   -3.8050 C   0  0  0  0  0  0  0  0  0  0  0  0
    4.9650   10.8140   -3.3200 C   0  0  2  0  0  0  0  0  0  0  0  0
    5.5580   12.0320   -3.7890 O   0  0  0  0  0  0  0  0  0  0  0  0
    6.1780   10.8140   -4.2310 C   0  0  0  0  0  0  0  0  0  0  0  0
    6.0510   10.5640   -5.7010 C   0  0  0  0  0  0  0  0  0  0  0  0
    7.5260   10.5700   -3.6270 C   0  0  0  0  0  0  0  0  0  0  0  0
    0.5440   11.2780   -2.6970 C   0  0  1  0  0  0  0  0  0  0  0  0
   -0.8320   11.1080   -1.9990 C   0  0  0  0  0  0  0  0  0  0  0  0
   -0.9480   12.2500   -0.9560 C   0  0  0  0  0  0  0  0  0  0  0  0
    0.2000   13.2230   -1.3140 C   0  0  1  0  0  0  0  0  0  0  0  0
   -0.3540   14.0780   -2.4970 C   0  0  0  0  0  0  0  0  0  0  0  0
    0.7300   14.1230   -0.1510 C   0  0  2  0  0  0  0  0  0  0  0  0
   -0.3010   15.0990    0.4420 C   0  0  0  0  0  0  0  0  0  0  0  0
   -0.3490   16.4450   -0.2020 C   0  0  0  0  0  0  0  0  0  0  0  0
    0.5910   16.9540   -1.0200 C   0  0  0  0  0  0  0  0  0  0  0  0
    1.8930   16.1920   -1.2950 C   0  0  1  0  0  0  0  0  0  0  0  0
    3.0970   17.1610   -1.1690 C   0  0  0  0  0  0  0  0  0  0  0  0
    2.9480   18.3970   -2.0500 C   0  0  0  0  0  0  0  0  0  0  0  0
    1.6710   19.1610   -1.7070 C   0  0  2  0  0  0  0  0  0  0  0  0
    1.7980   19.7020   -0.3890 O   0  0  0  0  0  0  0  0  0  0  0  0
    0.3910   18.2830   -1.7900 C   0  0  0  0  0  0  0  0  0  0  0  0
    0.0870   17.9450   -3.2710 C   0  0  0  0  0  0  0  0  0  0  0  0
   -0.8050   19.1340   -1.2850 C   0  0  0  0  0  0  0  0  0  0  0  0
    2.0990   14.8510   -0.4670 C   0  0  1  0  0  0  0  0  0  0  0  0
    2.7610   15.1710    0.9080 C   0  0  0  0  0  0  0  0  0  0  0  0
    3.1070   13.9200   -1.2390 C   0  0  0  0  0  0  0  0  0  0  0  0
    2.5080   12.9680   -2.2910 C   0  0  0  0  0  0  0  0  0  0  0  0
    1.3180   12.1940   -1.7160 C   0  0  2  0  0  0  0  0  0  0  0  0
    1.8480   11.3080   -0.5380 C   0  0  0  0  0  0  0  0  0  0  0  0
    0.5236    8.9238   -1.2758 H   0  0  0  0  0  0  0  0  0  0  0  0
   -0.6157    8.8170   -2.6604 H   0  0  0  0  0  0  0  0  0  0  0  0
    0.8919    7.8404   -2.6604 H   0  0  0  0  0  0  0  0  0  0  0  0
    1.1048    9.7790   -4.1484 H   0  0  0  0  0  0  0  0  0  0  0  0
    2.8161   10.5595   -1.7915 H   0  0  0  0  0  0  0  0  0  0  0  0
    3.0007    8.9210   -2.5817 H   0  0  0  0  0  0  0  0  0  0  0  0
    3.6024    9.8772   -4.6579 H   0  0  0  0  0  0  0  0  0  0  0  0
    3.1346   11.5378   -4.1006 H   0  0  0  0  0  0  0  0  0  0  0  0
    4.7525   10.2943   -2.3741 H   0  0  0  0  0  0  0  0  0  0  0  0
    5.5585    9.5945   -5.8668 H   0  0  0  0  0  0  0  0  0  0  0  0
    5.4498   11.3636   -6.1583 H   0  0  0  0  0  0  0  0  0  0  0  0
    7.0513   10.5501   -6.1583 H   0  0  0  0  0  0  0  0  0  0  0  0
    7.4444   10.5848   -2.5301 H   0  0  0  0  0  0  0  0  0  0  0  0
    7.9020    9.5892   -3.9535 H   0  0  0  0  0  0  0  0  0  0  0  0
    8.2220   11.3568   -3.9535 H   0  0  0  0  0  0  0  0  0  0  0  0
    0.5041   11.7429   -3.6931 H   0  0  0  0  0  0  0  0  0  0  0  0
   -1.6436   11.1854   -2.7375 H   0  0  0  0  0  0  0  0  0  0  0  0
   -0.9114   10.1226   -1.5166 H   0  0  0  0  0  0  0  0  0  0  0  0
   -1.9229   12.7529   -1.0375 H   0  0  0  0  0  0  0  0  0  0  0  0
   -0.8747   11.8803    0.0774 H   0  0  0  0  0  0  0  0  0  0  0  0
   -0.9114   14.9383   -2.0981 H   0  0  0  0  0  0  0  0  0  0  0  0
    0.4833   14.4374   -3.1132 H   0  0  0  0  0  0  0  0  0  0  0  0
   -1.0242   13.4607   -3.1132 H   0  0  0  0  0  0  0  0  0  0  0  0
    0.9343   13.3873    0.6409 H   0  0  0  0  0  0  0  0  0  0  0  0
   -1.2966   14.6410    0.3468 H   0  0  0  0  0  0  0  0  0  0  0  0
    0.0071   15.2710    1.4839 H   0  0  0  0  0  0  0  0  0  0  0  0
   -1.2264   17.0737    0.0098 H   0  0  0  0  0  0  0  0  0  0  0  0
    1.8176   15.8241   -2.3289 H   0  0  0  0  0  0  0  0  0  0  0  0
    3.1819   17.4834   -0.1207 H   0  0  0  0  0  0  0  0  0  0  0  0
    3.9961   16.6211   -1.5008 H   0  0  0  0  0  0  0  0  0  0  0  0
    3.8147   19.0564   -1.8947 H   0  0  0  0  0  0  0  0  0  0  0  0
    2.8930   18.0749   -3.1004 H   0  0  0  0  0  0  0  0  0  0  0  0
    1.5530   19.9592   -2.4547 H   0  0  0  0  0  0  0  0  0  0  0  0
    1.9200   20.6630   -0.4760 H   0  0  0  0  0  0  0  0  0  0  0  0
   -0.6479   17.1279   -3.3172 H   0  0  0  0  0  0  0  0  0  0  0  0
   -0.3212   18.8342   -3.7737 H   0  0  0  0  0  0  0  0  0  0  0  0
    1.0143   17.6330   -3.7737 H   0  0  0  0  0  0  0  0  0  0  0  0
   -0.8126   19.1394   -0.1850 H   0  0  0  0  0  0  0  0  0  0  0  0
   -0.7043   20.1646   -1.6561 H   0  0  0  0  0  0  0  0  0  0  0  0
   -1.7457   18.7010   -1.6561 H   0  0  0  0  0  0  0  0  0  0  0  0
    2.0933   14.8482    1.7204 H   0  0  0  0  0  0  0  0  0  0  0  0
    3.7192   14.6366    0.9868 H   0  0  0  0  0  0  0  0  0  0  0  0
    2.9375   16.2539    0.9868 H   0  0  0  0  0  0  0  0  0  0  0  0
    3.8325   14.5684   -1.7520 H   0  0  0  0  0  0  0  0  0  0  0  0
    3.5386   13.2631   -0.4695 H   0  0  0  0  0  0  0  0  0  0  0  0
    2.1702   13.5558   -3.1573 H   0  0  0  0  0  0  0  0  0  0  0  0
    3.2822   12.2472   -2.5928 H   0  0  0  0  0  0  0  0  0  0  0  0
    1.5717   11.7699    0.4213 H   0  0  0  0  0  0  0  0  0  0  0  0
    1.4015   10.3049   -0.6040 H   0  0  0  0  0  0  0  0  0  0  0  0
    2.9430   11.2270   -0.6040 H   0  0  0  0  0  0  0  0  0  0  0  0
  1  2  1  0
  2  3  1  0
  3  4  1  0
  4  5  1  0
  5  6  1  0
  6  7  1  0
  7  8  1  0
  7  9  1  0
  2 10  1  0
 10 11  1  0
 11 12  1  0
 12 13  1  0
 13 14  1  6
 13 15  1  0
 15 16  1  0
 16 17  1  0
 17 18  2  0
 18 19  1  0
 19 20  1  0
 20 21  1  0
 21 22  1  0
 22 23  1  0
 22 24  1  0
 24 25  1  0
 24 26  1  0
 19 27  1  0
 27 28  1  1
 27 29  1  0
 29 30  1  0
 30 31  1  0
 31 32  1  1
  7  5  1  0
 31 10  1  0
 31 13  1  0
 27 15  1  0
 24 18  1  0
  1 33  1  0
  1 34  1  0
  1 35  1  0
  2 36  1  6
  3 37  1  0
  3 38  1  0
  4 39  1  0
  4 40  1  0
  5 41  1  1
  8 42  1  0
  8 43  1  0
  8 44  1  0
  9 45  1  0
  9 46  1  0
  9 47  1  0
 10 48  1  6
 11 49  1  0
 11 50  1  0
 12 51  1  0
 12 52  1  0
 14 53  1  0
 14 54  1  0
 14 55  1  0
 15 56  1  1
 16 57  1  0
 16 58  1  0
 17 59  1  0
 19 60  1  6
 20 61  1  0
 20 62  1  0
 21 63  1  0
 21 64  1  0
 22 65  1  6
 23 66  1  0
 25 67  1  0
 25 68  1  0
 25 69  1  0
 26 70  1  0
 26 71  1  0
 26 72  1  0
 28 73  1  0
 28 74  1  0
 28 75  1  0
 29 76  1  0
 29 77  1  0
 30 78  1  0
 30 79  1  0
 32 80  1  0
 32 81  1  0
 32 82  1  0
M  END
>  <meeko>  (7) 
{"is_sidechain": [false], "intermolecular_energy": 2.731, "internal_energy": -0.839}

$$$$
EPH_relaxed_0001_pdb2pqr_Repair_14_r2_0001_out
     RDKit          3D

 82 86  0  0  0  0  0  0  0  0999 V2000
    3.1070   18.8880   -2.6250 C   0  0  0  0  0  0  0  0  0  0  0  0
    1.8740   18.9930   -1.7220 C   0  0  2  0  0  0  0  0  0  0  0  0
    2.0630   20.0330   -0.6000 C   0  0  0  0  0  0  0  0  0  0  0  0
    2.3250   19.4140    0.7750 C   0  0  0  0  0  0  0  0  0  0  0  0
    3.7850   19.4120    1.1130 C   0  0  2  0  0  0  0  0  0  0  0  0
    4.1860   18.3870    2.0320 O   0  0  0  0  0  0  0  0  0  0  0  0
    4.3250   19.7410    2.4920 C   0  0  0  0  0  0  0  0  0  0  0  0
    3.4120   20.0970    3.6230 C   0  0  0  0  0  0  0  0  0  0  0  0
    5.7470   20.1930    2.6150 C   0  0  0  0  0  0  0  0  0  0  0  0
    1.5540   17.6290   -1.1210 C   0  0  1  0  0  0  0  0  0  0  0  0
    0.4370   17.6990   -0.0450 C   0  0  0  0  0  0  0  0  0  0  0  0
   -0.3810   16.3870   -0.1650 C   0  0  0  0  0  0  0  0  0  0  0  0
    0.4810   15.4710   -1.0650 C   0  0  1  0  0  0  0  0  0  0  0  0
    1.5540   14.8620   -0.1070 C   0  0  0  0  0  0  0  0  0  0  0  0
   -0.2850   14.3590   -1.8540 C   0  0  2  0  0  0  0  0  0  0  0  0
   -1.0010   13.3140   -0.9800 C   0  0  0  0  0  0  0  0  0  0  0  0
   -0.1880   12.1120   -0.6290 C   0  0  0  0  0  0  0  0  0  0  0  0
    0.9590   11.7420   -1.2270 C   0  0  0  0  0  0  0  0  0  0  0  0
    1.5000   12.5120   -2.4390 C   0  0  1  0  0  0  0  0  0  0  0  0
    1.9280   11.5090   -3.5420 C   0  0  0  0  0  0  0  0  0  0  0  0
    2.9110   10.4610   -3.0300 C   0  0  0  0  0  0  0  0  0  0  0  0
    2.3150    9.6760   -1.8640 C   0  0  2  0  0  0  0  0  0  0  0  0
    1.2160    8.8970   -2.3470 O   0  0  0  0  0  0  0  0  0  0  0  0
    1.8390   10.5830   -0.6950 C   0  0  0  0  0  0  0  0  0  0  0  0
    3.0680   11.1960    0.0220 C   0  0  0  0  0  0  0  0  0  0  0  0
    1.1310    9.6810    0.3510 C   0  0  0  0  0  0  0  0  0  0  0  0
    0.5670   13.6710   -2.9960 C   0  0  1  0  0  0  0  0  0  0  0  0
   -0.4520   13.0870   -4.0210 C   0  0  0  0  0  0  0  0  0  0  0  0
    1.4500   14.7060   -3.7890 C   0  0  0  0  0  0  0  0  0  0  0  0
    2.0830   15.8490   -2.9720 C   0  0  0  0  0  0  0  0  0  0  0  0
    1.0380   16.5310   -2.0830 C   0  0  2  0  0  0  0  0  0  0  0  0
   -0.0430   17.1710   -3.0190 C   0  0  0  0  0  0  0  0  0  0  0  0
    4.0112   18.8110   -2.0034 H   0  0  0  0  0  0  0  0  0  0  0  0
    3.0214   17.9939   -3.2600 H   0  0  0  0  0  0  0  0  0  0  0  0
    3.1738   19.7837   -3.2600 H   0  0  0  0  0  0  0  0  0  0  0  0
    1.0335   19.3310   -2.3459 H   0  0  0  0  0  0  0  0  0  0  0  0
    2.9181   20.6739   -0.8610 H   0  0  0  0  0  0  0  0  0  0  0  0
    1.1225   20.5984   -0.5240 H   0  0  0  0  0  0  0  0  0  0  0  0
    1.7836   19.9947    1.5364 H   0  0  0  0  0  0  0  0  0  0  0  0
    1.9767   18.3708    0.7534 H   0  0  0  0  0  0  0  0  0  0  0  0
    4.0411   19.7876    0.1113 H   0  0  0  0  0  0  0  0  0  0  0  0
    3.9186   19.8995    4.5792 H   0  0  0  0  0  0  0  0  0  0  0  0
    3.1495   21.1634    3.5606 H   0  0  0  0  0  0  0  0  0  0  0  0
    2.4969   19.4898    3.5606 H   0  0  0  0  0  0  0  0  0  0  0  0
    6.0141   20.2779    3.6787 H   0  0  0  0  0  0  0  0  0  0  0  0
    6.4079   19.4607    2.1283 H   0  0  0  0  0  0  0  0  0  0  0  0
    5.8638   21.1725    2.1283 H   0  0  0  0  0  0  0  0  0  0  0  0
    2.5494   17.3566   -0.7402 H   0  0  0  0  0  0  0  0  0  0  0  0
    0.8815   17.7781    0.9581 H   0  0  0  0  0  0  0  0  0  0  0  0
   -0.2040   18.5799   -0.1971 H   0  0  0  0  0  0  0  0  0  0  0  0
   -0.5299   15.9303    0.8246 H   0  0  0  0  0  0  0  0  0  0  0  0
   -1.3843   16.5575   -0.5825 H   0  0  0  0  0  0  0  0  0  0  0  0
    1.2527   15.0330    0.9370 H   0  0  0  0  0  0  0  0  0  0  0  0
    1.6391   13.7810   -0.2917 H   0  0  0  0  0  0  0  0  0  0  0  0
    2.5258   15.3432   -0.2917 H   0  0  0  0  0  0  0  0  0  0  0  0
   -1.0831   14.9300   -2.3510 H   0  0  0  0  0  0  0  0  0  0  0  0
   -1.3044   13.8046   -0.0434 H   0  0  0  0  0  0  0  0  0  0  0  0
   -1.8473   12.9452   -1.5781 H   0  0  0  0  0  0  0  0  0  0  0  0
   -0.5582   11.4749    0.1878 H   0  0  0  0  0  0  0  0  0  0  0  0
    2.3790   13.0667   -2.0790 H   0  0  0  0  0  0  0  0  0  0  0  0
    1.0311   10.9964   -3.9198 H   0  0  0  0  0  0  0  0  0  0  0  0
    2.4321   12.0803   -4.3354 H   0  0  0  0  0  0  0  0  0  0  0  0
    3.1523    9.7646   -3.8466 H   0  0  0  0  0  0  0  0  0  0  0  0
    3.8192   10.9735   -2.6799 H   0  0  0  0  0  0  0  0  0  0  0  0
    3.1098    9.0328   -1.4582 H   0  0  0  0  0  0  0  0  0  0  0  0
    0.4130    9.4400   -2.2670 H   0  0  0  0  0  0  0  0  0  0  0  0
    2.9294   11.1269    1.1110 H   0  0  0  0  0  0  0  0  0  0  0  0
    3.9745   10.6445   -0.2680 H   0  0  0  0  0  0  0  0  0  0  0  0
    3.1727   12.2519   -0.2680 H   0  0  0  0  0  0  0  0  0  0  0  0
    1.3953   10.0177    1.3643 H   0  0  0  0  0  0  0  0  0  0  0  0
    0.0415    9.7476    0.2150 H   0  0  0  0  0  0  0  0  0  0  0  0
    1.4545    8.6385    0.2150 H   0  0  0  0  0  0  0  0  0  0  0  0
   -1.2833   12.6106   -3.4807 H   0  0  0  0  0  0  0  0  0  0  0  0
   -0.8425   13.8984   -4.6528 H   0  0  0  0  0  0  0  0  0  0  0  0
    0.0507   12.3399   -4.6528 H   0  0  0  0  0  0  0  0  0  0  0  0
    2.2674   14.1475   -4.2686 H   0  0  0  0  0  0  0  0  0  0  0  0
    0.7577   15.2000   -4.4867 H   0  0  0  0  0  0  0  0  0  0  0  0
    2.8823   15.4382   -2.3376 H   0  0  0  0  0  0  0  0  0  0  0  0
    2.4908   16.5951   -3.6699 H   0  0  0  0  0  0  0  0  0  0  0  0
   -0.8292   17.6365   -2.4064 H   0  0  0  0  0  0  0  0  0  0  0  0
    0.4281   17.9358   -3.6539 H   0  0  0  0  0  0  0  0  0  0  0  0
   -0.4870   16.3901   -3.6539 H   0  0  0  0  0  0  0  0  0  0  0  0
  1  2  1  0
  2  3  1  0
  3  4  1  0
  4  5  1  0
  5  6  1  0
  6  7  1  0
  7  8  1  0
  7  9  1  0
  2 10  1  0
 10 11  1  0
 11 12  1  0
 12 13  1  0
 13 14  1  1
 13 15  1  0
 15 16  1  0
 16 17  1  0
 17 18  2  0
 18 19  1  0
 19 20  1  0
 20 21  1  0
 21 22  1  0
 22 23  1  0
 22 24  1  0
 24 25  1  0
 24 26  1  0
 19 27  1  0
 27 28  1  6
 27 29  1  0
 29 30  1  0
 30 31  1  0
 31 32  1  6
  7  5  1  0
 31 10  1  0
 31 13  1  0
 27 15  1  0
 24 18  1  0
  1 33  1  0
  1 34  1  0
  1 35  1  0
  2 36  1  6
  3 37  1  0
  3 38  1  0
  4 39  1  0
  4 40  1  0
  5 41  1  6
  8 42  1  0
  8 43  1  0
  8 44  1  0
  9 45  1  0
  9 46  1  0
  9 47  1  0
 10 48  1  1
 11 49  1  0
 11 50  1  0
 12 51  1  0
 12 52  1  0
 14 53  1  0
 14 54  1  0
 14 55  1  0
 15 56  1  6
 16 57  1  0
 16 58  1  0
 17 59  1  0
 19 60  1  1
 20 61  1  0
 20 62  1  0
 21 63  1  0
 21 64  1  0
 22 65  1  1
 23 66  1  0
 25 67  1  0
 25 68  1  0
 25 69  1  0
 26 70  1  0
 26 71  1  0
 26 72  1  0
 28 73  1  0
 28 74  1  0
 28 75  1  0
 29 76  1  0
 29 77  1  0
 30 78  1  0
 30 79  1  0
 32 80  1  0
 32 81  1  0
 32 82  1  0
M  END
>  <meeko>  (8) 
{"is_sidechain": [false], "intermolecular_energy": 2.731, "internal_energy": -0.839}

$$$$
EPH_relaxed_0001_pdb2pqr_Repair_14_r2_0001_out
     RDKit          3D

 82 86  0  0  0  0  0  0  0  0999 V2000
    3.1500   18.6660   -1.2030 C   0  0  0  0  0  0  0  0  0  0  0  0
    2.7110   17.6060   -2.2180 C   0  0  2  0  0  0  0  0  0  0  0  0
    1.2970   17.8780   -2.7680 C   0  0  0  0  0  0  0  0  0  0  0  0
    0.6870   19.1920   -2.2730 C   0  0  0  0  0  0  0  0  0  0  0  0
   -0.6880   18.9890   -1.7120 C   0  0  2  0  0  0  0  0  0  0  0  0
   -1.4380   20.1940   -1.5140 O   0  0  0  0  0  0  0  0  0  0  0  0
   -1.1050   19.4530   -0.3290 C   0  0  0  0  0  0  0  0  0  0  0  0
   -0.1460   20.1570    0.5790 C   0  0  0  0  0  0  0  0  0  0  0  0
   -2.2810   18.7960    0.3220 C   0  0  0  0  0  0  0  0  0  0  0  0
    2.7650   16.2220   -1.5800 C   0  0  1  0  0  0  0  0  0  0  0  0
    3.3400   16.2510   -0.1390 C   0  0  0  0  0  0  0  0  0  0  0  0
    2.5840   15.1630    0.6660 C   0  0  0  0  0  0  0  0  0  0  0  0
    1.8440   14.3280   -0.4050 C   0  0  1  0  0  0  0  0  0  0  0  0
    2.9220   13.3460   -0.9620 C   0  0  0  0  0  0  0  0  0  0  0  0
    0.5630   13.5690    0.0720 C   0  0  2  0  0  0  0  0  0  0  0  0
    0.8020   12.5020    1.1540 C   0  0  0  0  0  0  0  0  0  0  0  0
    1.0840   11.1280    0.6430 C   0  0  0  0  0  0  0  0  0  0  0  0
    0.8650   10.7010   -0.6140 C   0  0  0  0  0  0  0  0  0  0  0  0
    0.1880   11.6090   -1.6480 C   0  0  1  0  0  0  0  0  0  0  0  0
   -0.9140   10.8120   -2.3950 C   0  0  0  0  0  0  0  0  0  0  0  0
   -0.3850    9.5210   -3.0120 C   0  0  0  0  0  0  0  0  0  0  0  0
    0.2290    8.6190   -1.9440 C   0  0  2  0  0  0  0  0  0  0  0  0
   -0.8090    8.1710   -1.0670 O   0  0  0  0  0  0  0  0  0  0  0  0
    1.3450    9.3170   -1.1180 C   0  0  0  0  0  0  0  0  0  0  0  0
    2.5940    9.5310   -2.0090 C   0  0  0  0  0  0  0  0  0  0  0  0
    1.7800    8.3480    0.0140 C   0  0  0  0  0  0  0  0  0  0  0  0
   -0.3340   13.0090   -1.1050 C   0  0  1  0  0  0  0  0  0  0  0  0
   -1.7750   12.8520   -0.5300 C   0  0  0  0  0  0  0  0  0  0  0  0
   -0.4430   14.0190   -2.3070 C   0  0  0  0  0  0  0  0  0  0  0  0
    0.8220   14.8260   -2.6540 C   0  0  0  0  0  0  0  0  0  0  0  0
    1.4220   15.4700   -1.4000 C   0  0  2  0  0  0  0  0  0  0  0  0
    0.3690   16.4800   -0.8310 C   0  0  0  0  0  0  0  0  0  0  0  0
    2.9921   18.2848   -0.1833 H   0  0  0  0  0  0  0  0  0  0  0  0
    4.2163   18.8935   -1.3484 H   0  0  0  0  0  0  0  0  0  0  0  0
    2.5568   19.5808   -1.3484 H   0  0  0  0  0  0  0  0  0  0  0  0
    3.4090   17.6519   -3.0670 H   0  0  0  0  0  0  0  0  0  0  0  0
    1.3521   17.9125   -3.8661 H   0  0  0  0  0  0  0  0  0  0  0  0
    0.6493   17.0660   -2.4059 H   0  0  0  0  0  0  0  0  0  0  0  0
    1.3336   19.6118   -1.4884 H   0  0  0  0  0  0  0  0  0  0  0  0
    0.6098   19.8780   -3.1294 H   0  0  0  0  0  0  0  0  0  0  0  0
   -0.7782   18.0191   -2.2230 H   0  0  0  0  0  0  0  0  0  0  0  0
   -0.4183   19.9571    1.6259 H   0  0  0  0  0  0  0  0  0  0  0  0
    0.8741   19.7917    0.3893 H   0  0  0  0  0  0  0  0  0  0  0  0
   -0.1889   21.2397    0.3893 H   0  0  0  0  0  0  0  0  0  0  0  0
   -2.1753   18.8551    1.4153 H   0  0  0  0  0  0  0  0  0  0  0  0
   -3.2042   19.3090    0.0147 H   0  0  0  0  0  0  0  0  0  0  0  0
   -2.3281   17.7409    0.0147 H   0  0  0  0  0  0  0  0  0  0  0  0
    3.3920   15.7017   -2.3190 H   0  0  0  0  0  0  0  0  0  0  0  0
    4.4173   16.0293   -0.1565 H   0  0  0  0  0  0  0  0  0  0  0  0
    3.2097   17.2429    0.3184 H   0  0  0  0  0  0  0  0  0  0  0  0
    3.2906   14.5348    1.2282 H   0  0  0  0  0  0  0  0  0  0  0  0
    1.8953   15.5955    1.4067 H   0  0  0  0  0  0  0  0  0  0  0  0
    3.4488   12.8661   -0.1240 H   0  0  0  0  0  0  0  0  0  0  0  0
    2.4336   12.5760   -1.5772 H   0  0  0  0  0  0  0  0  0  0  0  0
    3.6433   13.9039   -1.5772 H   0  0  0  0  0  0  0  0  0  0  0  0
   -0.0153   14.3661    0.5621 H   0  0  0  0  0  0  0  0  0  0  0  0
    1.6610   12.8213    1.7625 H   0  0  0  0  0  0  0  0  0  0  0  0
   -0.1372   12.4287    1.7220 H   0  0  0  0  0  0  0  0  0  0  0  0
    1.5066   10.4032    1.3544 H   0  0  0  0  0  0  0  0  0  0  0  0
    0.9772   11.9065   -2.3542 H   0  0  0  0  0  0  0  0  0  0  0  0
   -1.7125   10.5606   -1.6814 H   0  0  0  0  0  0  0  0  0  0  0  0
   -1.2874   11.4450   -3.2135 H   0  0  0  0  0  0  0  0  0  0  0  0
   -1.2147    8.9884   -3.4998 H   0  0  0  0  0  0  0  0  0  0  0  0
    0.3928    9.7754   -3.7470 H   0  0  0  0  0  0  0  0  0  0  0  0
    0.7054    7.7734   -2.4617 H   0  0  0  0  0  0  0  0  0  0  0  0
   -0.5080    8.3190   -0.1540 H   0  0  0  0  0  0  0  0  0  0  0  0
    3.4776    9.6824   -1.3715 H   0  0  0  0  0  0  0  0  0  0  0  0
    2.7473    8.6460   -2.6441 H   0  0  0  0  0  0  0  0  0  0  0  0
    2.4440   10.4165   -2.6441 H   0  0  0  0  0  0  0  0  0  0  0  0
    1.5730    8.8091    0.9910 H   0  0  0  0  0  0  0  0  0  0  0  0
    1.2182    7.4063   -0.0734 H   0  0  0  0  0  0  0  0  0  0  0  0
    2.8570    8.1420   -0.0734 H   0  0  0  0  0  0  0  0  0  0  0  0
   -1.7337   12.8565    0.5692 H   0  0  0  0  0  0  0  0  0  0  0  0
   -2.4012   13.6872   -0.8768 H   0  0  0  0  0  0  0  0  0  0  0  0
   -2.2066   11.9015   -0.8768 H   0  0  0  0  0  0  0  0  0  0  0  0
   -0.7257   13.4432   -3.2006 H   0  0  0  0  0  0  0  0  0  0  0  0
   -1.1828   14.7676   -1.9872 H   0  0  0  0  0  0  0  0  0  0  0  0
    1.5663   14.1527   -3.1041 H   0  0  0  0  0  0  0  0  0  0  0  0
    0.5471   15.6230   -3.3606 H   0  0  0  0  0  0  0  0  0  0  0  0
    0.3944   16.4556    0.2684 H   0  0  0  0  0  0  0  0  0  0  0  0
    0.6082   17.4951   -1.1809 H   0  0  0  0  0  0  0  0  0  0  0  0
   -0.6352   16.1987   -1.1809 H   0  0  0  0  0  0  0  0  0  0  0  0
  1  2  1  0
  2  3  1  0
  3  4  1  0
  4  5  1  0
  5  6  1  0
  6  7  1  0
  7  8  1  0
  7  9  1  0
  2 10  1  0
 10 11  1  0
 11 12  1  0
 12 13  1  0
 13 14  1  6
 13 15  1  0
 15 16  1  0
 16 17  1  0
 17 18  2  0
 18 19  1  0
 19 20  1  0
 20 21  1  0
 21 22  1  0
 22 23  1  0
 22 24  1  0
 24 25  1  0
 24 26  1  0
 19 27  1  0
 27 28  1  1
 27 29  1  0
 29 30  1  0
 30 31  1  0
 31 32  1  1
  7  5  1  0
 31 10  1  0
 31 13  1  0
 27 15  1  0
 24 18  1  0
  1 33  1  0
  1 34  1  0
  1 35  1  0
  2 36  1  6
  3 37  1  0
  3 38  1  0
  4 39  1  0
  4 40  1  0
  5 41  1  6
  8 42  1  0
  8 43  1  0
  8 44  1  0
  9 45  1  0
  9 46  1  0
  9 47  1  0
 10 48  1  6
 11 49  1  0
 11 50  1  0
 12 51  1  0
 12 52  1  0
 14 53  1  0
 14 54  1  0
 14 55  1  0
 15 56  1  1
 16 57  1  0
 16 58  1  0
 17 59  1  0
 19 60  1  6
 20 61  1  0
 20 62  1  0
 21 63  1  0
 21 64  1  0
 22 65  1  6
 23 66  1  0
 25 67  1  0
 25 68  1  0
 25 69  1  0
 26 70  1  0
 26 71  1  0
 26 72  1  0
 28 73  1  0
 28 74  1  0
 28 75  1  0
 29 76  1  0
 29 77  1  0
 30 78  1  0
 30 79  1  0
 32 80  1  0
 32 81  1  0
 32 82  1  0
M  END
>  <meeko>  (9) 
{"is_sidechain": [false], "intermolecular_energy": 2.731, "internal_energy": -0.839}

$$$$
EPH_relaxed_0001_pdb2pqr_Repair_14_r2_0001_out
     RDKit          3D

 82 86  0  0  0  0  0  0  0  0999 V2000
   -3.7840    7.2100   -3.4490 C   0  0  0  0  0  0  0  0  0  0  0  0
   -3.8020    7.2830   -1.9190 C   0  0  2  0  0  0  0  0  0  0  0  0
   -5.2180    7.0740   -1.3440 C   0  0  0  0  0  0  0  0  0  0  0  0
   -6.3370    7.3140   -2.3610 C   0  0  0  0  0  0  0  0  0  0  0  0
   -7.6620    7.5120   -1.6910 C   0  0  2  0  0  0  0  0  0  0  0  0
   -8.2290    6.3240   -1.1230 O   0  0  0  0  0  0  0  0  0  0  0  0
   -8.9590    6.9180   -2.2080 C   0  0  0  0  0  0  0  0  0  0  0  0
   -8.9930    6.0810   -3.4490 C   0  0  0  0  0  0  0  0  0  0  0  0
  -10.2510    7.5480   -1.7930 C   0  0  0  0  0  0  0  0  0  0  0  0
   -3.2450    8.6240   -1.4560 C   0  0  1  0  0  0  0  0  0  0  0  0
   -3.8660    9.0980   -0.1150 C   0  0  0  0  0  0  0  0  0  0  0  0
   -2.7470    9.8410    0.6580 C   0  0  0  0  0  0  0  0  0  0  0  0
   -1.6290   10.0600   -0.3880 C   0  0  1  0  0  0  0  0  0  0  0  0
   -2.0770   11.3170   -1.1970 C   0  0  0  0  0  0  0  0  0  0  0  0
   -0.1790   10.2220    0.1740 C   0  0  2  0  0  0  0  0  0  0  0  0
    0.0350   11.4440    1.0840 C   0  0  0  0  0  0  0  0  0  0  0  0
    0.4680   12.6910    0.3870 C   0  0  0  0  0  0  0  0  0  0  0  0
    0.9500   12.7580   -0.8680 C   0  0  0  0  0  0  0  0  0  0  0  0
    1.1920   11.4840   -1.6880 C   0  0  1  0  0  0  0  0  0  0  0  0
    2.5880   11.5590   -2.3610 C   0  0  0  0  0  0  0  0  0  0  0  0
    2.7720   12.8290   -3.1870 C   0  0  0  0  0  0  0  0  0  0  0  0
    2.5800   14.0730   -2.3240 C   0  0  2  0  0  0  0  0  0  0  0  0
    3.6420   14.1400   -1.3680 O   0  0  0  0  0  0  0  0  0  0  0  0
    1.2110   14.1040   -1.5880 C   0  0  0  0  0  0  0  0  0  0  0  0
    0.0740   14.3360   -2.6140 C   0  0  0  0  0  0  0  0  0  0  0  0
    1.2040   15.3370   -0.6450 C   0  0  0  0  0  0  0  0  0  0  0  0
    0.9570   10.1120   -0.9220 C   0  0  1  0  0  0  0  0  0  0  0  0
    2.2580    9.6900   -0.1730 C   0  0  0  0  0  0  0  0  0  0  0  0
    0.6640    8.9790   -1.9750 C   0  0  0  0  0  0  0  0  0  0  0  0
   -0.8040    8.7890   -2.4010 C   0  0  0  0  0  0  0  0  0  0  0  0
   -1.7230    8.7040   -1.1780 C   0  0  2  0  0  0  0  0  0  0  0  0
   -1.3100    7.4360   -0.3560 C   0  0  0  0  0  0  0  0  0  0  0  0
   -3.5317    6.1868   -3.7643 H   0  0  0  0  0  0  0  0  0  0  0  0
   -4.7757    7.4804   -3.8407 H   0  0  0  0  0  0  0  0  0  0  0  0
   -3.0317    7.9104   -3.8407 H   0  0  0  0  0  0  0  0  0  0  0  0
   -3.1685    6.4668   -1.5415 H   0  0  0  0  0  0  0  0  0  0  0  0
   -5.2957    6.0389   -0.9800 H   0  0  0  0  0  0  0  0  0  0  0  0
   -5.3506    7.8128   -0.5399 H   0  0  0  0  0  0  0  0  0  0  0  0
   -6.0974    8.2120   -2.9493 H   0  0  0  0  0  0  0  0  0  0  0  0
   -6.4089    6.4268   -3.0072 H   0  0  0  0  0  0  0  0  0  0  0  0
   -7.3855    8.5346   -1.3947 H   0  0  0  0  0  0  0  0  0  0  0  0
   -9.0362    5.0172   -3.1727 H   0  0  0  0  0  0  0  0  0  0  0  0
   -9.8813    6.3419   -4.0430 H   0  0  0  0  0  0  0  0  0  0  0  0
   -8.0865    6.2690   -4.0430 H   0  0  0  0  0  0  0  0  0  0  0  0
  -10.3091    7.5763   -0.6949 H   0  0  0  0  0  0  0  0  0  0  0  0
  -10.3033    8.5727   -2.1895 H   0  0  0  0  0  0  0  0  0  0  0  0
  -11.0906    6.9582   -2.1895 H   0  0  0  0  0  0  0  0  0  0  0  0
   -3.5011    9.2414   -2.3296 H   0  0  0  0  0  0  0  0  0  0  0  0
   -4.7091    9.7778   -0.3073 H   0  0  0  0  0  0  0  0  0  0  0  0
   -4.2487    8.2460    0.4661 H   0  0  0  0  0  0  0  0  0  0  0  0
   -3.1140   10.8044    1.0416 H   0  0  0  0  0  0  0  0  0  0  0  0
   -2.3953    9.2723    1.5315 H   0  0  0  0  0  0  0  0  0  0  0  0
   -2.3628   12.1188   -0.5002 H   0  0  0  0  0  0  0  0  0  0  0  0
   -1.2460   11.6607   -1.8305 H   0  0  0  0  0  0  0  0  0  0  0  0
   -2.9380   11.0576   -1.8305 H   0  0  0  0  0  0  0  0  0  0  0  0
   -0.0793    9.3421    0.8266 H   0  0  0  0  0  0  0  0  0  0  0  0
   -0.9140   11.6546    1.5988 H   0  0  0  0  0  0  0  0  0  0  0  0
    0.8561   11.1757    1.7651 H   0  0  0  0  0  0  0  0  0  0  0  0
    0.3863   13.6348    0.9461 H   0  0  0  0  0  0  0  0  0  0  0  0
    0.4069   11.4640   -2.4582 H   0  0  0  0  0  0  0  0  0  0  0  0
    3.3592   11.5334   -1.5771 H   0  0  0  0  0  0  0  0  0  0  0  0
    2.6761   10.7010   -3.0437 H   0  0  0  0  0  0  0  0  0  0  0  0
    3.7867   12.8385   -3.6117 H   0  0  0  0  0  0  0  0  0  0  0  0
    2.0194   12.8384   -3.9892 H   0  0  0  0  0  0  0  0  0  0  0  0
    2.5944   14.9445   -2.9951 H   0  0  0  0  0  0  0  0  0  0  0  0
    3.6120   15.0190   -0.9550 H   0  0  0  0  0  0  0  0  0  0  0  0
   -0.8682   14.5283   -2.0799 H   0  0  0  0  0  0  0  0  0  0  0  0
    0.3210   15.2023   -3.2454 H   0  0  0  0  0  0  0  0  0  0  0  0
   -0.0382   13.4422   -3.2454 H   0  0  0  0  0  0  0  0  0  0  0  0
    1.2059   14.9982    0.4015 H   0  0  0  0  0  0  0  0  0  0  0  0
    2.0987   15.9484   -0.8341 H   0  0  0  0  0  0  0  0  0  0  0  0
    0.3024   15.9382   -0.8341 H   0  0  0  0  0  0  0  0  0  0  0  0
    2.0901    9.7445    0.9127 H   0  0  0  0  0  0  0  0  0  0  0  0
    2.5237    8.6596   -0.4517 H   0  0  0  0  0  0  0  0  0  0  0  0
    3.0779   10.3683   -0.4517 H   0  0  0  0  0  0  0  0  0  0  0  0
    1.2462    9.2073   -2.8800 H   0  0  0  0  0  0  0  0  0  0  0  0
    0.9415    8.0406   -1.4726 H   0  0  0  0  0  0  0  0  0  0  0  0
   -1.1114    9.6422   -3.0236 H   0  0  0  0  0  0  0  0  0  0  0  0
   -0.8862    7.8497   -2.9676 H   0  0  0  0  0  0  0  0  0  0  0  0
   -1.3819    7.6566    0.7192 H   0  0  0  0  0  0  0  0  0  0  0  0
   -1.9831    6.6023   -0.6050 H   0  0  0  0  0  0  0  0  0  0  0  0
   -0.2751    7.1586   -0.6050 H   0  0  0  0  0  0  0  0  0  0  0  0
  1  2  1  0
  2  3  1  0
  3  4  1  0
  4  5  1  0
  5  6  1  0
  6  7  1  0
  7  8  1  0
  7  9  1  0
  2 10  1  0
 10 11  1  0
 11 12  1  0
 12 13  1  0
 13 14  1  6
 13 15  1  0
 15 16  1  0
 16 17  1  0
 17 18  2  0
 18 19  1  0
 19 20  1  0
 20 21  1  0
 21 22  1  0
 22 23  1  0
 22 24  1  0
 24 25  1  0
 24 26  1  0
 19 27  1  0
 27 28  1  1
 27 29  1  0
 29 30  1  0
 30 31  1  0
 31 32  1  1
  7  5  1  0
 31 10  1  0
 31 13  1  0
 27 15  1  0
 24 18  1  0
  1 33  1  0
  1 34  1  0
  1 35  1  0
  2 36  1  1
  3 37  1  0
  3 38  1  0
  4 39  1  0
  4 40  1  0
  5 41  1  1
  8 42  1  0
  8 43  1  0
  8 44  1  0
  9 45  1  0
  9 46  1  0
  9 47  1  0
 10 48  1  6
 11 49  1  0
 11 50  1  0
 12 51  1  0
 12 52  1  0
 14 53  1  0
 14 54  1  0
 14 55  1  0
 15 56  1  1
 16 57  1  0
 16 58  1  0
 17 59  1  0
 19 60  1  6
 20 61  1  0
 20 62  1  0
 21 63  1  0
 21 64  1  0
 22 65  1  6
 23 66  1  0
 25 67  1  0
 25 68  1  0
 25 69  1  0
 26 70  1  0
 26 71  1  0
 26 72  1  0
 28 73  1  0
 28 74  1  0
 28 75  1  0
 29 76  1  0
 29 77  1  0
 30 78  1  0
 30 79  1  0
 32 80  1  0
 32 81  1  0
 32 82  1  0
M  END
>  <meeko>  (10) 
{"is_sidechain": [false], "intermolecular_energy": 2.731, "internal_energy": -0.839}

$$$$
EPH_relaxed_0001_pdb2pqr_Repair_14_r2_0001_out
     RDKit          3D

 82 86  0  0  0  0  0  0  0  0999 V2000
   -0.9670   16.3980   -5.8920 C   0  0  0  0  0  0  0  0  0  0  0  0
    0.1490   15.7130   -6.6860 C   0  0  2  0  0  0  0  0  0  0  0  0
   -0.2310   15.5140   -8.1670 C   0  0  0  0  0  0  0  0  0  0  0  0
    0.4260   16.5230   -9.1120 C   0  0  0  0  0  0  0  0  0  0  0  0
    1.8330   16.1310   -9.4500 C   0  0  2  0  0  0  0  0  0  0  0  0
    2.3290   16.6780  -10.6790 O   0  0  0  0  0  0  0  0  0  0  0  0
    2.1960   15.2490  -10.6290 C   0  0  0  0  0  0  0  0  0  0  0  0
    1.1470   14.7030  -11.5470 C   0  0  0  0  0  0  0  0  0  0  0  0
    3.5040   14.5220  -10.6040 C   0  0  0  0  0  0  0  0  0  0  0  0
    0.4900   14.3700   -6.0510 C   0  0  1  0  0  0  0  0  0  0  0  0
    1.7030   13.6790   -6.7310 C   0  0  0  0  0  0  0  0  0  0  0  0
    2.4740   12.9310   -5.6140 C   0  0  0  0  0  0  0  0  0  0  0  0
    1.5120   12.9370   -4.4030 C   0  0  1  0  0  0  0  0  0  0  0  0
    0.5180   11.7650   -4.6750 C   0  0  0  0  0  0  0  0  0  0  0  0
    2.1750   12.8150   -2.9930 C   0  0  2  0  0  0  0  0  0  0  0  0
    2.9430   11.5060   -2.7430 C   0  0  0  0  0  0  0  0  0  0  0  0
    2.1380   10.3970   -2.1500 C   0  0  0  0  0  0  0  0  0  0  0  0
    0.9320   10.5310   -1.5680 C   0  0  0  0  0  0  0  0  0  0  0  0
    0.3000   11.9160   -1.3750 C   0  0  1  0  0  0  0  0  0  0  0  0
   -0.2510   12.0370    0.0700 C   0  0  0  0  0  0  0  0  0  0  0  0
   -1.2080   10.9040    0.4280 C   0  0  0  0  0  0  0  0  0  0  0  0
   -0.5260    9.5460    0.2790 C   0  0  2  0  0  0  0  0  0  0  0  0
    0.5050    9.4390    1.2660 O   0  0  0  0  0  0  0  0  0  0  0  0
    0.0770    9.3150   -1.1340 C   0  0  0  0  0  0  0  0  0  0  0  0
   -1.0650    9.1310   -2.1640 C   0  0  0  0  0  0  0  0  0  0  0  0
    0.8570    7.9730   -1.1070 C   0  0  0  0  0  0  0  0  0  0  0  0
    1.2050   13.1550   -1.7890 C   0  0  1  0  0  0  0  0  0  0  0  0
    2.1120   13.5750   -0.5920 C   0  0  0  0  0  0  0  0  0  0  0  0
    0.2780   14.3890   -2.0980 C   0  0  0  0  0  0  0  0  0  0  0  0
   -0.2490   14.5190   -3.5400 C   0  0  0  0  0  0  0  0  0  0  0  0
    0.8890   14.3730   -4.5540 C   0  0  2  0  0  0  0  0  0  0  0  0
    1.8940   15.5510   -4.3190 C   0  0  0  0  0  0  0  0  0  0  0  0
   -0.7759   16.2807   -4.8151 H   0  0  0  0  0  0  0  0  0  0  0  0
   -0.9935   17.4681   -6.1453 H   0  0  0  0  0  0  0  0  0  0  0  0
   -1.9332   15.9372   -6.1453 H   0  0  0  0  0  0  0  0  0  0  0  0
    1.0291   16.3722   -6.6562 H   0  0  0  0  0  0  0  0  0  0  0  0
    0.0759   14.5025   -8.4713 H   0  0  0  0  0  0  0  0  0  0  0  0
   -1.3182   15.6635   -8.2427 H   0  0  0  0  0  0  0  0  0  0  0  0
   -0.1618   16.5772  -10.0402 H   0  0  0  0  0  0  0  0  0  0  0  0
    0.4541   17.4992   -8.6058 H   0  0  0  0  0  0  0  0  0  0  0  0
    2.1002   16.0846   -8.3840 H   0  0  0  0  0  0  0  0  0  0  0  0
    0.3260   14.2757  -10.9526 H   0  0  0  0  0  0  0  0  0  0  0  0
    0.7575   15.5128  -12.1815 H   0  0  0  0  0  0  0  0  0  0  0  0
    1.5868   13.9194  -12.1815 H   0  0  0  0  0  0  0  0  0  0  0  0
    3.8093   14.3523   -9.5609 H   0  0  0  0  0  0  0  0  0  0  0  0
    3.3957   13.5546  -11.1163 H   0  0  0  0  0  0  0  0  0  0  0  0
    4.2683   15.1247  -11.1163 H   0  0  0  0  0  0  0  0  0  0  0  0
   -0.4719   13.8530   -6.1829 H   0  0  0  0  0  0  0  0  0  0  0  0
    1.3549   12.9667   -7.4935 H   0  0  0  0  0  0  0  0  0  0  0  0
    2.3483   14.4159   -7.2316 H   0  0  0  0  0  0  0  0  0  0  0  0
    2.7023   11.9003   -5.9233 H   0  0  0  0  0  0  0  0  0  0  0  0
    3.4382   13.4072   -5.3826 H   0  0  0  0  0  0  0  0  0  0  0  0
    0.1676   11.3518   -3.7177 H   0  0  0  0  0  0  0  0  0  0  0  0
   -0.3420   12.1395   -5.2495 H   0  0  0  0  0  0  0  0  0  0  0  0
    1.0279   10.9776   -5.2495 H   0  0  0  0  0  0  0  0  0  0  0  0
    2.9378   13.6070   -3.0226 H   0  0  0  0  0  0  0  0  0  0  0  0
    3.3434   11.1577   -3.7065 H   0  0  0  0  0  0  0  0  0  0  0  0
    3.7209   11.7463   -2.0033 H   0  0  0  0  0  0  0  0  0  0  0  0
    2.5670    9.3850   -2.1924 H   0  0  0  0  0  0  0  0  0  0  0  0
   -0.5283   11.9754   -2.0964 H   0  0  0  0  0  0  0  0  0  0  0  0
    0.5951   12.0192    0.7727 H   0  0  0  0  0  0  0  0  0  0  0  0
   -0.8118   12.9810    0.1355 H   0  0  0  0  0  0  0  0  0  0  0  0
   -1.5392   11.0281    1.4696 H   0  0  0  0  0  0  0  0  0  0  0  0
   -2.0684   10.9417   -0.2563 H   0  0  0  0  0  0  0  0  0  0  0  0
   -1.2949    8.7723    0.4212 H   0  0  0  0  0  0  0  0  0  0  0  0
    1.2510    8.9640    0.8610 H   0  0  0  0  0  0  0  0  0  0  0  0
   -2.0162    8.9777   -1.6333 H   0  0  0  0  0  0  0  0  0  0  0  0
   -1.1378   10.0290   -2.7951 H   0  0  0  0  0  0  0  0  0  0  0  0
   -0.8520    8.2556   -2.7951 H   0  0  0  0  0  0  0  0  0  0  0  0
    1.0322    7.6716   -0.0637 H   0  0  0  0  0  0  0  0  0  0  0  0
    0.2692    7.1969   -1.6191 H   0  0  0  0  0  0  0  0  0  0  0  0
    1.8223    8.0996   -1.6191 H   0  0  0  0  0  0  0  0  0  0  0  0
    1.6029   13.3393    0.3542 H   0  0  0  0  0  0  0  0  0  0  0  0
    3.0638   13.0260   -0.6429 H   0  0  0  0  0  0  0  0  0  0  0  0
    2.3090   14.6560   -0.6429 H   0  0  0  0  0  0  0  0  0  0  0  0
   -0.5935   14.3260   -1.4298 H   0  0  0  0  0  0  0  0  0  0  0  0
    0.9147   15.2727   -1.9438 H   0  0  0  0  0  0  0  0  0  0  0  0
   -0.9966   13.7329   -3.7223 H   0  0  0  0  0  0  0  0  0  0  0  0
   -0.7006   15.5148   -3.6602 H   0  0  0  0  0  0  0  0  0  0  0  0
    2.0283   15.7084   -3.2386 H   0  0  0  0  0  0  0  0  0  0  0  0
    2.8631   15.3031   -4.7767 H   0  0  0  0  0  0  0  0  0  0  0  0
    1.4965   16.4689   -4.7767 H   0  0  0  0  0  0  0  0  0  0  0  0
  1  2  1  0
  2  3  1  0
  3  4  1  0
  4  5  1  0
  5  6  1  0
  6  7  1  0
  7  8  1  0
  7  9  1  0
  2 10  1  0
 10 11  1  0
 11 12  1  0
 12 13  1  0
 13 14  1  6
 13 15  1  0
 15 16  1  0
 16 17  1  0
 17 18  2  0
 18 19  1  0
 19 20  1  0
 20 21  1  0
 21 22  1  0
 22 23  1  0
 22 24  1  0
 24 25  1  0
 24 26  1  0
 19 27  1  0
 27 28  1  1
 27 29  1  0
 29 30  1  0
 30 31  1  0
 31 32  1  6
  7  5  1  0
 31 10  1  0
 31 13  1  0
 27 15  1  0
 24 18  1  0
  1 33  1  0
  1 34  1  0
  1 35  1  0
  2 36  1  6
  3 37  1  0
  3 38  1  0
  4 39  1  0
  4 40  1  0
  5 41  1  1
  8 42  1  0
  8 43  1  0
  8 44  1  0
  9 45  1  0
  9 46  1  0
  9 47  1  0
 10 48  1  1
 11 49  1  0
 11 50  1  0
 12 51  1  0
 12 52  1  0
 14 53  1  0
 14 54  1  0
 14 55  1  0
 15 56  1  6
 16 57  1  0
 16 58  1  0
 17 59  1  0
 19 60  1  6
 20 61  1  0
 20 62  1  0
 21 63  1  0
 21 64  1  0
 22 65  1  1
 23 66  1  0
 25 67  1  0
 25 68  1  0
 25 69  1  0
 26 70  1  0
 26 71  1  0
 26 72  1  0
 28 73  1  0
 28 74  1  0
 28 75  1  0
 29 76  1  0
 29 77  1  0
 30 78  1  0
 30 79  1  0
 32 80  1  0
 32 81  1  0
 32 82  1  0
M  END
>  <meeko>  (11) 
{"is_sidechain": [false], "intermolecular_energy": 2.731, "internal_energy": -0.839}

$$$$
EPH_relaxed_0001_pdb2pqr_Repair_14_r2_0001_out
     RDKit          3D

 82 86  0  0  0  0  0  0  0  0999 V2000
   -0.2540    9.3580   -2.2480 C   0  0  0  0  0  0  0  0  0  0  0  0
    0.8870   10.2800   -2.6870 C   0  0  2  0  0  0  0  0  0  0  0  0
    2.2440    9.5480   -2.7220 C   0  0  0  0  0  0  0  0  0  0  0  0
    3.1750   10.0300   -3.8380 C   0  0  0  0  0  0  0  0  0  0  0  0
    4.4880   10.5090   -3.2970 C   0  0  2  0  0  0  0  0  0  0  0  0
    4.8810   11.8120   -3.7450 O   0  0  0  0  0  0  0  0  0  0  0  0
    5.7200   10.7210   -4.1570 C   0  0  0  0  0  0  0  0  0  0  0  0
    5.6970   10.4590   -5.6310 C   0  0  0  0  0  0  0  0  0  0  0  0
    7.0640   10.7110   -3.4980 C   0  0  0  0  0  0  0  0  0  0  0  0
    0.9690   11.4850   -1.7580 C   0  0  1  0  0  0  0  0  0  0  0  0
    2.0620   11.3270   -0.6680 C   0  0  0  0  0  0  0  0  0  0  0  0
    2.6560   12.7370   -0.4210 C   0  0  0  0  0  0  0  0  0  0  0  0
    1.6720   13.7030   -1.1230 C   0  0  1  0  0  0  0  0  0  0  0  0
    0.4970   13.8830   -0.1120 C   0  0  0  0  0  0  0  0  0  0  0  0
    2.2600   15.0790   -1.5770 C   0  0  2  0  0  0  0  0  0  0  0  0
    2.7790   15.9740   -0.4380 C   0  0  0  0  0  0  0  0  0  0  0  0
    1.7740   16.9120    0.1440 C   0  0  0  0  0  0  0  0  0  0  0  0
    0.5920   17.2370   -0.4130 C   0  0  0  0  0  0  0  0  0  0  0  0
    0.2070   16.7140   -1.8030 C   0  0  1  0  0  0  0  0  0  0  0  0
   -0.3590   17.8800   -2.6560 C   0  0  0  0  0  0  0  0  0  0  0  0
   -1.5100   18.6050   -1.9660 C   0  0  0  0  0  0  0  0  0  0  0  0
   -1.0710   19.1600   -0.6130 C   0  0  2  0  0  0  0  0  0  0  0  0
   -0.1060   20.1940   -0.8300 O   0  0  0  0  0  0  0  0  0  0  0  0
   -0.4750   18.0780    0.3300 C   0  0  0  0  0  0  0  0  0  0  0  0
   -1.5990   17.1260    0.8060 C   0  0  0  0  0  0  0  0  0  0  0  0
    0.0560   18.7930    1.6010 C   0  0  0  0  0  0  0  0  0  0  0  0
    1.3280   15.8870   -2.5680 C   0  0  1  0  0  0  0  0  0  0  0  0
    2.2560   16.8560   -3.3620 C   0  0  0  0  0  0  0  0  0  0  0  0
    0.6410   14.9560   -3.6360 C   0  0  0  0  0  0  0  0  0  0  0  0
    0.1900   13.5630   -3.1560 C   0  0  0  0  0  0  0  0  0  0  0  0
    1.3160   12.8540   -2.3970 C   0  0  2  0  0  0  0  0  0  0  0  0
    2.5040   12.6380   -3.3960 C   0  0  0  0  0  0  0  0  0  0  0  0
   -0.2960    9.3241   -1.1493 H   0  0  0  0  0  0  0  0  0  0  0  0
   -1.2073    9.7424   -2.6397 H   0  0  0  0  0  0  0  0  0  0  0  0
   -0.0784    8.3452   -2.6397 H   0  0  0  0  0  0  0  0  0  0  0  0
    0.6660   10.6152   -3.7111 H   0  0  0  0  0  0  0  0  0  0  0  0
    2.7482    9.7051   -1.7571 H   0  0  0  0  0  0  0  0  0  0  0  0
    2.0316    8.4864   -2.9168 H   0  0  0  0  0  0  0  0  0  0  0  0
    3.3584    9.1977   -4.5334 H   0  0  0  0  0  0  0  0  0  0  0  0
    2.6878   10.8724   -4.3508 H   0  0  0  0  0  0  0  0  0  0  0  0
    4.3291    9.9572   -2.3588 H   0  0  0  0  0  0  0  0  0  0  0  0
    5.6021    9.3778   -5.8098 H   0  0  0  0  0  0  0  0  0  0  0  0
    4.8413   10.9819   -6.0831 H   0  0  0  0  0  0  0  0  0  0  0  0
    6.6307   10.8248   -6.0831 H   0  0  0  0  0  0  0  0  0  0  0  0
    6.9367   10.7119   -2.4054 H   0  0  0  0  0  0  0  0  0  0  0  0
    7.6148    9.8087   -3.8022 H   0  0  0  0  0  0  0  0  0  0  0  0
    7.6282   11.6050   -3.8022 H   0  0  0  0  0  0  0  0  0  0  0  0
   -0.0642   11.4962   -1.3806 H   0  0  0  0  0  0  0  0  0  0  0  0
    1.6182   10.9354    0.2592 H   0  0  0  0  0  0  0  0  0  0  0  0
    2.8418   10.6214   -0.9907 H   0  0  0  0  0  0  0  0  0  0  0  0
    2.7098   12.9525    0.6563 H   0  0  0  0  0  0  0  0  0  0  0  0
    3.6813   12.8316   -0.8081 H   0  0  0  0  0  0  0  0  0  0  0  0
    0.8851   13.8236    0.9156 H   0  0  0  0  0  0  0  0  0  0  0  0
    0.0248   14.8640   -0.2694 H   0  0  0  0  0  0  0  0  0  0  0  0
   -0.2472   13.0884   -0.2694 H   0  0  0  0  0  0  0  0  0  0  0  0
    3.1496   14.7781   -2.1498 H   0  0  0  0  0  0  0  0  0  0  0  0
    3.1417   15.3207    0.3693 H   0  0  0  0  0  0  0  0  0  0  0  0
    3.5640   16.6050   -0.8803 H   0  0  0  0  0  0  0  0  0  0  0  0
    2.0200   17.3772    1.1100 H   0  0  0  0  0  0  0  0  0  0  0  0
   -0.5748   15.9580   -1.6377 H   0  0  0  0  0  0  0  0  0  0  0  0
    0.4488   18.6020   -2.8464 H   0  0  0  0  0  0  0  0  0  0  0  0
   -0.7477   17.4511   -3.5914 H   0  0  0  0  0  0  0  0  0  0  0  0
   -1.8466   19.4355   -2.6039 H   0  0  0  0  0  0  0  0  0  0  0  0
   -2.3292   17.8892   -1.8033 H   0  0  0  0  0  0  0  0  0  0  0  0
   -1.9678   19.5524   -0.1113 H   0  0  0  0  0  0  0  0  0  0  0  0
   -0.4640   21.0150   -0.4500 H   0  0  0  0  0  0  0  0  0  0  0  0
   -1.6219   17.1066    1.9056 H   0  0  0  0  0  0  0  0  0  0  0  0
   -2.5674   17.4828    0.4253 H   0  0  0  0  0  0  0  0  0  0  0  0
   -1.4064   16.1121    0.4253 H   0  0  0  0  0  0  0  0  0  0  0  0
   -0.3249   18.2801    2.4964 H   0  0  0  0  0  0  0  0  0  0  0  0
    1.1557   18.7674    1.6037 H   0  0  0  0  0  0  0  0  0  0  0  0
   -0.2864   19.8383    1.6037 H   0  0  0  0  0  0  0  0  0  0  0  0
    2.8396   17.4654   -2.6562 H   0  0  0  0  0  0  0  0  0  0  0  0
    2.9403   16.2720   -3.9950 H   0  0  0  0  0  0  0  0  0  0  0  0
    1.6429   17.5144   -3.9950 H   0  0  0  0  0  0  0  0  0  0  0  0
   -0.2484   15.4821   -4.0131 H   0  0  0  0  0  0  0  0  0  0  0  0
    1.4171   14.7628   -4.3912 H   0  0  0  0  0  0  0  0  0  0  0  0
   -0.6780   13.6755   -2.4897 H   0  0  0  0  0  0  0  0  0  0  0  0
   -0.0758   12.9579   -4.0353 H   0  0  0  0  0  0  0  0  0  0  0  0
    3.4324   12.4692   -2.8307 H   0  0  0  0  0  0  0  0  0  0  0  0
    2.2961   11.7629   -4.0293 H   0  0  0  0  0  0  0  0  0  0  0  0
    2.6174   13.5303   -4.0293 H   0  0  0  0  0  0  0  0  0  0  0  0
  1  2  1  0
  2  3  1  0
  3  4  1  0
  4  5  1  0
  5  6  1  0
  6  7  1  0
  7  8  1  0
  7  9  1  0
  2 10  1  0
 10 11  1  0
 11 12  1  0
 12 13  1  0
 13 14  1  1
 13 15  1  0
 15 16  1  0
 16 17  1  0
 17 18  2  0
 18 19  1  0
 19 20  1  0
 20 21  1  0
 21 22  1  0
 22 23  1  0
 22 24  1  0
 24 25  1  0
 24 26  1  0
 19 27  1  0
 27 28  1  6
 27 29  1  0
 29 30  1  0
 30 31  1  0
 31 32  1  6
  7  5  1  0
 31 10  1  0
 31 13  1  0
 27 15  1  0
 24 18  1  0
  1 33  1  0
  1 34  1  0
  1 35  1  0
  2 36  1  6
  3 37  1  0
  3 38  1  0
  4 39  1  0
  4 40  1  0
  5 41  1  1
  8 42  1  0
  8 43  1  0
  8 44  1  0
  9 45  1  0
  9 46  1  0
  9 47  1  0
 10 48  1  1
 11 49  1  0
 11 50  1  0
 12 51  1  0
 12 52  1  0
 14 53  1  0
 14 54  1  0
 14 55  1  0
 15 56  1  6
 16 57  1  0
 16 58  1  0
 17 59  1  0
 19 60  1  1
 20 61  1  0
 20 62  1  0
 21 63  1  0
 21 64  1  0
 22 65  1  1
 23 66  1  0
 25 67  1  0
 25 68  1  0
 25 69  1  0
 26 70  1  0
 26 71  1  0
 26 72  1  0
 28 73  1  0
 28 74  1  0
 28 75  1  0
 29 76  1  0
 29 77  1  0
 30 78  1  0
 30 79  1  0
 32 80  1  0
 32 81  1  0
 32 82  1  0
M  END
>  <meeko>  (12) 
{"is_sidechain": [false], "intermolecular_energy": 2.731, "internal_energy": -0.839}

$$$$
EPH_relaxed_0001_pdb2pqr_Repair_14_r2_0001_out
     RDKit          3D

 82 86  0  0  0  0  0  0  0  0999 V2000
   -2.0350    7.9630   -1.7710 C   0  0  0  0  0  0  0  0  0  0  0  0
   -2.1340    8.6950   -0.4300 C   0  0  2  0  0  0  0  0  0  0  0  0
   -3.5840    8.7590    0.0910 C   0  0  0  0  0  0  0  0  0  0  0  0
   -4.6380    8.7570   -1.0190 C   0  0  0  0  0  0  0  0  0  0  0  0
   -5.2860    7.4140   -1.1660 C   0  0  2  0  0  0  0  0  0  0  0  0
   -5.4780    6.9870   -2.5210 O   0  0  0  0  0  0  0  0  0  0  0  0
   -6.6710    7.2130   -1.7530 C   0  0  0  0  0  0  0  0  0  0  0  0
   -7.4910    8.3700   -2.2300 C   0  0  0  0  0  0  0  0  0  0  0  0
   -7.4160    5.9600   -1.4140 C   0  0  0  0  0  0  0  0  0  0  0  0
   -1.5650   10.1020   -0.5630 C   0  0  1  0  0  0  0  0  0  0  0  0
   -1.0150   10.6540    0.7790 C   0  0  0  0  0  0  0  0  0  0  0  0
    0.2170   11.5280    0.4320 C   0  0  0  0  0  0  0  0  0  0  0  0
    0.1390   11.7220   -1.1000 C   0  0  1  0  0  0  0  0  0  0  0  0
   -0.8940   12.8730   -1.3070 C   0  0  0  0  0  0  0  0  0  0  0  0
    1.4900   12.0200   -1.8290 C   0  0  2  0  0  0  0  0  0  0  0  0
    2.1830   13.3280   -1.4080 C   0  0  0  0  0  0  0  0  0  0  0  0
    1.8100   14.5330   -2.2070 C   0  0  0  0  0  0  0  0  0  0  0  0
    1.1760   14.5180   -3.3940 C   0  0  0  0  0  0  0  0  0  0  0  0
    0.8550   13.1940   -4.1000 C   0  0  1  0  0  0  0  0  0  0  0  0
    1.2540   13.2950   -5.5960 C   0  0  0  0  0  0  0  0  0  0  0  0
    0.6190   14.4950   -6.2910 C   0  0  0  0  0  0  0  0  0  0  0  0
    1.0090   15.7970   -5.5960 C   0  0  2  0  0  0  0  0  0  0  0  0
    2.4130   16.0110   -5.7710 O   0  0  0  0  0  0  0  0  0  0  0  0
    0.6640   15.8090   -4.0800 C   0  0  0  0  0  0  0  0  0  0  0  0
   -0.8720   15.8810   -3.8960 C   0  0  0  0  0  0  0  0  0  0  0  0
    1.2360   17.1180   -3.4710 C   0  0  0  0  0  0  0  0  0  0  0  0
    1.4210   11.8830   -3.4040 C   0  0  1  0  0  0  0  0  0  0  0  0
    2.8770   11.6080   -3.8910 C   0  0  0  0  0  0  0  0  0  0  0  0
    0.5600   10.6460   -3.8590 C   0  0  0  0  0  0  0  0  0  0  0  0
   -0.6980   10.3310   -3.0270 C   0  0  0  0  0  0  0  0  0  0  0  0
   -0.3710   10.2990   -1.5310 C   0  0  2  0  0  0  0  0  0  0  0  0
    0.6490    9.1350   -1.2890 C   0  0  0  0  0  0  0  0  0  0  0  0
   -1.8895    6.8875   -1.5918 H   0  0  0  0  0  0  0  0  0  0  0  0
   -2.9622    8.1174   -2.3424 H   0  0  0  0  0  0  0  0  0  0  0  0
   -1.1821    8.3582   -2.3424 H   0  0  0  0  0  0  0  0  0  0  0  0
   -1.5453    8.1242    0.3032 H   0  0  0  0  0  0  0  0  0  0  0  0
   -3.7593    7.8867    0.7378 H   0  0  0  0  0  0  0  0  0  0  0  0
   -3.6892    9.7110    0.6320 H   0  0  0  0  0  0  0  0  0  0  0  0
   -5.4112    9.5013   -0.7777 H   0  0  0  0  0  0  0  0  0  0  0  0
   -4.1374    9.0017   -1.9674 H   0  0  0  0  0  0  0  0  0  0  0  0
   -4.8217    7.0617   -0.2331 H   0  0  0  0  0  0  0  0  0  0  0  0
   -7.8831    8.9233   -1.3639 H   0  0  0  0  0  0  0  0  0  0  0  0
   -6.8636    9.0380   -2.8384 H   0  0  0  0  0  0  0  0  0  0  0  0
   -8.3291    7.9993   -2.8384 H   0  0  0  0  0  0  0  0  0  0  0  0
   -7.4785    5.8549   -0.3208 H   0  0  0  0  0  0  0  0  0  0  0  0
   -8.4305    6.0111   -1.8360 H   0  0  0  0  0  0  0  0  0  0  0  0
   -6.8866    5.0931   -1.8360 H   0  0  0  0  0  0  0  0  0  0  0  0
   -2.4532   10.6229   -0.9500 H   0  0  0  0  0  0  0  0  0  0  0  0
   -1.7817   11.2624    1.2809 H   0  0  0  0  0  0  0  0  0  0  0  0
   -0.7390    9.8349    1.4594 H   0  0  0  0  0  0  0  0  0  0  0  0
    0.1635   12.4973    0.9493 H   0  0  0  0  0  0  0  0  0  0  0  0
    1.1619   11.0601    0.7455 H   0  0  0  0  0  0  0  0  0  0  0  0
   -1.2286   13.2459   -0.3277 H   0  0  0  0  0  0  0  0  0  0  0  0
   -0.4224   13.6922   -1.8696 H   0  0  0  0  0  0  0  0  0  0  0  0
   -1.7592   12.4924   -1.8696 H   0  0  0  0  0  0  0  0  0  0  0  0
    2.1380   11.2082   -1.4668 H   0  0  0  0  0  0  0  0  0  0  0  0
    1.9273   13.5249   -0.3564 H   0  0  0  0  0  0  0  0  0  0  0  0
    3.2584   13.1710   -1.5779 H   0  0  0  0  0  0  0  0  0  0  0  0
    2.0758   15.5157   -1.7903 H   0  0  0  0  0  0  0  0  0  0  0  0
   -0.2331   13.0582   -4.0128 H   0  0  0  0  0  0  0  0  0  0  0  0
    2.3481   13.3866   -5.6637 H   0  0  0  0  0  0  0  0  0  0  0  0
    0.8917   12.3870   -6.1002 H   0  0  0  0  0  0  0  0  0  0  0  0
    0.9609   14.5283   -7.3360 H   0  0  0  0  0  0  0  0  0  0  0  0
   -0.4749   14.3877   -6.2475 H   0  0  0  0  0  0  0  0  0  0  0  0
    0.4235   16.6055   -6.0580 H   0  0  0  0  0  0  0  0  0  0  0  0
    2.6380   15.7560   -6.6820 H   0  0  0  0  0  0  0  0  0  0  0  0
   -1.1126   15.8923   -2.8227 H   0  0  0  0  0  0  0  0  0  0  0  0
   -1.2552   16.7981   -4.3673 H   0  0  0  0  0  0  0  0  0  0  0  0
   -1.3393   15.0038   -4.3673 H   0  0  0  0  0  0  0  0  0  0  0  0
    1.2082   17.0544   -2.3732 H   0  0  0  0  0  0  0  0  0  0  0  0
    2.2755   17.2538   -3.8042 H   0  0  0  0  0  0  0  0  0  0  0  0
    0.6295   17.9730   -3.8042 H   0  0  0  0  0  0  0  0  0  0  0  0
    3.5375   11.4833   -3.0202 H   0  0  0  0  0  0  0  0  0  0  0  0
    2.8935   10.6909   -4.4981 H   0  0  0  0  0  0  0  0  0  0  0  0
    3.2269   12.4559   -4.4981 H   0  0  0  0  0  0  0  0  0  0  0  0
    0.2370   10.8283   -4.8946 H   0  0  0  0  0  0  0  0  0  0  0  0
    1.2175    9.7740   -3.7278 H   0  0  0  0  0  0  0  0  0  0  0  0
   -1.4562   11.1059   -3.2133 H   0  0  0  0  0  0  0  0  0  0  0  0
   -1.0773    9.3423   -3.3247 H   0  0  0  0  0  0  0  0  0  0  0  0
    0.7822    8.9830   -0.2077 H   0  0  0  0  0  0  0  0  0  0  0  0
    0.2651    8.2104   -1.7447 H   0  0  0  0  0  0  0  0  0  0  0  0
    1.6160    9.3942   -1.7447 H   0  0  0  0  0  0  0  0  0  0  0  0
  1  2  1  0
  2  3  1  0
  3  4  1  0
  4  5  1  0
  5  6  1  0
  6  7  1  0
  7  8  1  0
  7  9  1  0
  2 10  1  0
 10 11  1  0
 11 12  1  0
 12 13  1  0
 13 14  1  1
 13 15  1  0
 15 16  1  0
 16 17  1  0
 17 18  2  0
 18 19  1  0
 19 20  1  0
 20 21  1  0
 21 22  1  0
 22 23  1  0
 22 24  1  0
 24 25  1  0
 24 26  1  0
 19 27  1  0
 27 28  1  6
 27 29  1  0
 29 30  1  0
 30 31  1  0
 31 32  1  6
  7  5  1  0
 31 10  1  0
 31 13  1  0
 27 15  1  0
 24 18  1  0
  1 33  1  0
  1 34  1  0
  1 35  1  0
  2 36  1  1
  3 37  1  0
  3 38  1  0
  4 39  1  0
  4 40  1  0
  5 41  1  1
  8 42  1  0
  8 43  1  0
  8 44  1  0
  9 45  1  0
  9 46  1  0
  9 47  1  0
 10 48  1  6
 11 49  1  0
 11 50  1  0
 12 51  1  0
 12 52  1  0
 14 53  1  0
 14 54  1  0
 14 55  1  0
 15 56  1  1
 16 57  1  0
 16 58  1  0
 17 59  1  0
 19 60  1  6
 20 61  1  0
 20 62  1  0
 21 63  1  0
 21 64  1  0
 22 65  1  6
 23 66  1  0
 25 67  1  0
 25 68  1  0
 25 69  1  0
 26 70  1  0
 26 71  1  0
 26 72  1  0
 28 73  1  0
 28 74  1  0
 28 75  1  0
 29 76  1  0
 29 77  1  0
 30 78  1  0
 30 79  1  0
 32 80  1  0
 32 81  1  0
 32 82  1  0
M  END
>  <meeko>  (13) 
{"is_sidechain": [false], "intermolecular_energy": 2.731, "internal_energy": -0.839}

$$$$
EPH_relaxed_0001_pdb2pqr_Repair_14_r2_0001_out
     RDKit          3D

 82 86  0  0  0  0  0  0  0  0999 V2000
    3.0690   18.3130   -3.2740 C   0  0  0  0  0  0  0  0  0  0  0  0
    2.3170   18.1280   -1.9530 C   0  0  2  0  0  0  0  0  0  0  0  0
    2.7670   19.1410   -0.8810 C   0  0  0  0  0  0  0  0  0  0  0  0
    3.9230   18.6420   -0.0090 C   0  0  0  0  0  0  0  0  0  0  0  0
    3.6640   18.8860    1.4470 C   0  0  2  0  0  0  0  0  0  0  0  0
    4.0250   20.1940    1.9080 O   0  0  0  0  0  0  0  0  0  0  0  0
    4.7660   19.0980    2.4680 C   0  0  0  0  0  0  0  0  0  0  0  0
    6.2100   19.0760    2.0740 C   0  0  0  0  0  0  0  0  0  0  0  0
    4.4630   18.8410    3.9110 C   0  0  0  0  0  0  0  0  0  0  0  0
    2.5110   16.7060   -1.4390 C   0  0  1  0  0  0  0  0  0  0  0  0
    3.0930   16.6640   -0.0010 C   0  0  0  0  0  0  0  0  0  0  0  0
    2.4540   15.4410    0.7050 C   0  0  0  0  0  0  0  0  0  0  0  0
    1.7910   14.6340   -0.4370 C   0  0  1  0  0  0  0  0  0  0  0  0
    2.9550   13.8150   -1.0780 C   0  0  0  0  0  0  0  0  0  0  0  0
    0.5940   13.7150   -0.0280 C   0  0  2  0  0  0  0  0  0  0  0  0
    0.9460   12.5850    0.9560 C   0  0  0  0  0  0  0  0  0  0  0  0
    1.3570   11.2950    0.3260 C   0  0  0  0  0  0  0  0  0  0  0  0
    1.1700   10.9610   -0.9650 C   0  0  0  0  0  0  0  0  0  0  0  0
    0.3980   11.8860   -1.9140 C   0  0  1  0  0  0  0  0  0  0  0  0
   -0.6260   11.0530   -2.7290 C   0  0  0  0  0  0  0  0  0  0  0  0
    0.0220    9.8790   -3.4570 C   0  0  0  0  0  0  0  0  0  0  0  0
    0.7290    8.9510   -2.4730 C   0  0  2  0  0  0  0  0  0  0  0  0
   -0.2520    8.3280   -1.6390 O   0  0  0  0  0  0  0  0  0  0  0  0
    1.7790    9.6810   -1.5890 C   0  0  0  0  0  0  0  0  0  0  0  0
    2.9930   10.0940   -2.4570 C   0  0  0  0  0  0  0  0  0  0  0  0
    2.3160    8.6630   -0.5470 C   0  0  0  0  0  0  0  0  0  0  0  0
   -0.2540   13.1740   -1.2500 C   0  0  1  0  0  0  0  0  0  0  0  0
   -1.6680   12.8270   -0.6910 C   0  0  0  0  0  0  0  0  0  0  0  0
   -0.4720   14.2700   -2.3590 C   0  0  0  0  0  0  0  0  0  0  0  0
    0.7060   15.2250   -2.6330 C   0  0  0  0  0  0  0  0  0  0  0  0
    1.2510   15.8120   -1.3270 C   0  0  2  0  0  0  0  0  0  0  0  0
    0.1080   16.6600   -0.6700 C   0  0  0  0  0  0  0  0  0  0  0  0
    4.1178   18.5710   -3.0658 H   0  0  0  0  0  0  0  0  0  0  0  0
    3.0292   17.3783   -3.8526 H   0  0  0  0  0  0  0  0  0  0  0  0
    2.6001   19.1226   -3.8526 H   0  0  0  0  0  0  0  0  0  0  0  0
    1.2505   18.3097   -2.1518 H   0  0  0  0  0  0  0  0  0  0  0  0
    3.0872   20.0634   -1.3876 H   0  0  0  0  0  0  0  0  0  0  0  0
    1.9084   19.3052   -0.2133 H   0  0  0  0  0  0  0  0  0  0  0  0
    4.0521   17.5618   -0.1721 H   0  0  0  0  0  0  0  0  0  0  0  0
    4.8306   19.1947   -0.2933 H   0  0  0  0  0  0  0  0  0  0  0  0
    2.7938   18.2134    1.4294 H   0  0  0  0  0  0  0  0  0  0  0  0
    6.8366   19.0665    2.9780 H   0  0  0  0  0  0  0  0  0  0  0  0
    6.4136   18.1746    1.4772 H   0  0  0  0  0  0  0  0  0  0  0  0
    6.4409   19.9707    1.4772 H   0  0  0  0  0  0  0  0  0  0  0  0
    5.1513   19.4248    4.5398 H   0  0  0  0  0  0  0  0  0  0  0  0
    3.4265   19.1396    4.1269 H   0  0  0  0  0  0  0  0  0  0  0  0
    4.5885   17.7697    4.1269 H   0  0  0  0  0  0  0  0  0  0  0  0
    3.1797   16.3176   -2.2213 H   0  0  0  0  0  0  0  0  0  0  0  0
    4.1866   16.5511   -0.0382 H   0  0  0  0  0  0  0  0  0  0  0  0
    2.8704   17.5942    0.5423 H   0  0  0  0  0  0  0  0  0  0  0  0
    3.2232   14.8386    1.2104 H   0  0  0  0  0  0  0  0  0  0  0  0
    1.7322   15.7369    1.4805 H   0  0  0  0  0  0  0  0  0  0  0  0
    3.5767   13.3775   -0.2830 H   0  0  0  0  0  0  0  0  0  0  0  0
    2.5374   13.0106   -1.7014 H   0  0  0  0  0  0  0  0  0  0  0  0
    3.5711   14.4797   -1.7014 H   0  0  0  0  0  0  0  0  0  0  0  0
   -0.0549   14.4060    0.5301 H   0  0  0  0  0  0  0  0  0  0  0  0
    1.7748   12.9326    1.5903 H   0  0  0  0  0  0  0  0  0  0  0  0
    0.0233   12.3701    1.5149 H   0  0  0  0  0  0  0  0  0  0  0  0
    1.8543   10.5554    0.9707 H   0  0  0  0  0  0  0  0  0  0  0  0
    1.1481   12.3219   -2.5903 H   0  0  0  0  0  0  0  0  0  0  0  0
   -1.3904   10.6627   -2.0409 H   0  0  0  0  0  0  0  0  0  0  0  0
   -1.0658   11.7155   -3.4890 H   0  0  0  0  0  0  0  0  0  0  0  0
   -0.7555    9.3129   -3.9908 H   0  0  0  0  0  0  0  0  0  0  0  0
    0.7658   10.2723   -4.1655 H   0  0  0  0  0  0  0  0  0  0  0  0
    1.2802    8.2039   -3.0629 H   0  0  0  0  0  0  0  0  0  0  0  0
    0.0570    7.4270   -1.4430 H   0  0  0  0  0  0  0  0  0  0  0  0
    3.8308   10.3790   -1.8037 H   0  0  0  0  0  0  0  0  0  0  0  0
    3.2945    9.2479   -3.0920 H   0  0  0  0  0  0  0  0  0  0  0  0
    2.7160   10.9485   -3.0920 H   0  0  0  0  0  0  0  0  0  0  0  0
    2.1181    9.0382    0.4679 H   0  0  0  0  0  0  0  0  0  0  0  0
    1.8108    7.6957   -0.6853 H   0  0  0  0  0  0  0  0  0  0  0  0
    3.3996    8.5338   -0.6853 H   0  0  0  0  0  0  0  0  0  0  0  0
   -1.6394   12.8340    0.4086 H   0  0  0  0  0  0  0  0  0  0  0  0
   -2.3950   13.5734   -1.0437 H   0  0  0  0  0  0  0  0  0  0  0  0
   -1.9669   11.8289   -1.0437 H   0  0  0  0  0  0  0  0  0  0  0  0
   -0.7044   13.7497   -3.2999 H   0  0  0  0  0  0  0  0  0  0  0  0
   -1.2792   14.9112   -1.9753 H   0  0  0  0  0  0  0  0  0  0  0  0
    1.5086   14.6700   -3.1407 H   0  0  0  0  0  0  0  0  0  0  0  0
    0.3486   16.0503   -3.2663 H   0  0  0  0  0  0  0  0  0  0  0  0
    0.1897   16.5994    0.4253 H   0  0  0  0  0  0  0  0  0  0  0  0
    0.2012   17.7092   -0.9871 H   0  0  0  0  0  0  0  0  0  0  0  0
   -0.8691   16.2665   -0.9871 H   0  0  0  0  0  0  0  0  0  0  0  0
  1  2  1  0
  2  3  1  0
  3  4  1  0
  4  5  1  0
  5  6  1  0
  6  7  1  0
  7  8  1  0
  7  9  1  0
  2 10  1  0
 10 11  1  0
 11 12  1  0
 12 13  1  0
 13 14  1  6
 13 15  1  0
 15 16  1  0
 16 17  1  0
 17 18  2  0
 18 19  1  0
 19 20  1  0
 20 21  1  0
 21 22  1  0
 22 23  1  0
 22 24  1  0
 24 25  1  0
 24 26  1  0
 19 27  1  0
 27 28  1  1
 27 29  1  0
 29 30  1  0
 30 31  1  0
 31 32  1  1
  7  5  1  0
 31 10  1  0
 31 13  1  0
 27 15  1  0
 24 18  1  0
  1 33  1  0
  1 34  1  0
  1 35  1  0
  2 36  1  6
  3 37  1  0
  3 38  1  0
  4 39  1  0
  4 40  1  0
  5 41  1  1
  8 42  1  0
  8 43  1  0
  8 44  1  0
  9 45  1  0
  9 46  1  0
  9 47  1  0
 10 48  1  6
 11 49  1  0
 11 50  1  0
 12 51  1  0
 12 52  1  0
 14 53  1  0
 14 54  1  0
 14 55  1  0
 15 56  1  1
 16 57  1  0
 16 58  1  0
 17 59  1  0
 19 60  1  6
 20 61  1  0
 20 62  1  0
 21 63  1  0
 21 64  1  0
 22 65  1  6
 23 66  1  0
 25 67  1  0
 25 68  1  0
 25 69  1  0
 26 70  1  0
 26 71  1  0
 26 72  1  0
 28 73  1  0
 28 74  1  0
 28 75  1  0
 29 76  1  0
 29 77  1  0
 30 78  1  0
 30 79  1  0
 32 80  1  0
 32 81  1  0
 32 82  1  0
M  END
>  <meeko>  (14) 
{"is_sidechain": [false], "intermolecular_energy": 2.731, "internal_energy": -0.839}

$$$$
EPH_relaxed_0001_pdb2pqr_Repair_14_r2_0001_out
     RDKit          3D

 82 86  0  0  0  0  0  0  0  0999 V2000
    2.8400   11.3360   -5.3130 C   0  0  0  0  0  0  0  0  0  0  0  0
    1.8070   11.0370   -4.2220 C   0  0  2  0  0  0  0  0  0  0  0  0
    0.6860   10.1060   -4.7240 C   0  0  0  0  0  0  0  0  0  0  0  0
   -0.3850    9.8090   -3.6710 C   0  0  0  0  0  0  0  0  0  0  0  0
    0.1670    9.0150   -2.5260 C   0  0  2  0  0  0  0  0  0  0  0  0
   -0.6700    7.9390   -2.0850 O   0  0  0  0  0  0  0  0  0  0  0  0
   -0.4530    9.0000   -1.1410 C   0  0  0  0  0  0  0  0  0  0  0  0
   -1.6800    9.7970   -0.8280 C   0  0  0  0  0  0  0  0  0  0  0  0
    0.4040    8.6070    0.0220 C   0  0  0  0  0  0  0  0  0  0  0  0
    1.2090   12.3390   -3.7020 C   0  0  1  0  0  0  0  0  0  0  0  0
   -0.3300   12.2590   -3.5210 C   0  0  0  0  0  0  0  0  0  0  0  0
   -0.6800   13.1230   -2.2820 C   0  0  0  0  0  0  0  0  0  0  0  0
    0.6070   13.9310   -1.9930 C   0  0  1  0  0  0  0  0  0  0  0  0
    0.5640   15.1260   -2.9960 C   0  0  0  0  0  0  0  0  0  0  0  0
    0.8010   14.4190   -0.5210 C   0  0  2  0  0  0  0  0  0  0  0  0
   -0.2720   15.3970   -0.0110 C   0  0  0  0  0  0  0  0  0  0  0  0
    0.0250   16.8430   -0.2330 C   0  0  0  0  0  0  0  0  0  0  0  0
    1.2270   17.3540   -0.5570 C   0  0  0  0  0  0  0  0  0  0  0  0
    2.4680   16.4560   -0.6370 C   0  0  1  0  0  0  0  0  0  0  0  0
    3.6470   17.1350    0.1080 C   0  0  0  0  0  0  0  0  0  0  0  0
    3.9180   18.5510   -0.3910 C   0  0  0  0  0  0  0  0  0  0  0  0
    2.6770   19.4280   -0.2420 C   0  0  2  0  0  0  0  0  0  0  0  0
    2.4070   19.6110    1.1520 O   0  0  0  0  0  0  0  0  0  0  0  0
    1.4220   18.8400   -0.9450 C   0  0  0  0  0  0  0  0  0  0  0  0
    1.6000   18.9230   -2.4810 C   0  0  0  0  0  0  0  0  0  0  0  0
    0.2120   19.7480   -0.5980 C   0  0  0  0  0  0  0  0  0  0  0  0
    2.2590   14.9430   -0.1980 C   0  0  1  0  0  0  0  0  0  0  0  0
    2.4510   14.8040    1.3430 C   0  0  0  0  0  0  0  0  0  0  0  0
    3.3750   14.0550   -0.8660 C   0  0  0  0  0  0  0  0  0  0  0  0
    3.0740   13.5030   -2.2730 C   0  0  0  0  0  0  0  0  0  0  0  0
    1.6940   12.8420   -2.3190 C   0  0  2  0  0  0  0  0  0  0  0  0
    1.7140   11.6220   -1.3370 C   0  0  0  0  0  0  0  0  0  0  0  0
    3.7967   11.6129   -4.8461 H   0  0  0  0  0  0  0  0  0  0  0  0
    2.9822   10.4422   -5.9382 H   0  0  0  0  0  0  0  0  0  0  0  0
    2.4828   12.1676   -5.9382 H   0  0  0  0  0  0  0  0  0  0  0  0
    2.3286   10.5154   -3.4060 H   0  0  0  0  0  0  0  0  0  0  0  0
    0.2004   10.5820   -5.5886 H   0  0  0  0  0  0  0  0  0  0  0  0
    1.1570    9.1463   -4.9830 H   0  0  0  0  0  0  0  0  0  0  0  0
   -0.7804   10.7608   -3.2867 H   0  0  0  0  0  0  0  0  0  0  0  0
   -1.1789    9.2156   -4.1480 H   0  0  0  0  0  0  0  0  0  0  0  0
    1.1967    9.1898   -2.8713 H   0  0  0  0  0  0  0  0  0  0  0  0
   -1.7987    9.8741    0.2628 H   0  0  0  0  0  0  0  0  0  0  0  0
   -1.5824   10.8046   -1.2584 H   0  0  0  0  0  0  0  0  0  0  0  0
   -2.5609    9.2982   -1.2584 H   0  0  0  0  0  0  0  0  0  0  0  0
   -0.1184    8.8466    0.9599 H   0  0  0  0  0  0  0  0  0  0  0  0
    0.6057    7.5264   -0.0197 H   0  0  0  0  0  0  0  0  0  0  0  0
    1.3544    9.1592   -0.0197 H   0  0  0  0  0  0  0  0  0  0  0  0
    1.5476   13.0259   -4.4916 H   0  0  0  0  0  0  0  0  0  0  0  0
   -0.8374   12.6536   -4.4136 H   0  0  0  0  0  0  0  0  0  0  0  0
   -0.6579   11.2182   -3.3822 H   0  0  0  0  0  0  0  0  0  0  0  0
   -1.5202   13.7974   -2.5038 H   0  0  0  0  0  0  0  0  0  0  0  0
   -0.9906   12.5118   -1.4218 H   0  0  0  0  0  0  0  0  0  0  0  0
    0.5299   16.0728   -2.4371 H   0  0  0  0  0  0  0  0  0  0  0  0
    1.4634   15.1060   -3.6289 H   0  0  0  0  0  0  0  0  0  0  0  0
   -0.3317   15.0414   -3.6289 H   0  0  0  0  0  0  0  0  0  0  0  0
    0.6596   13.4922    0.0544 H   0  0  0  0  0  0  0  0  0  0  0  0
   -1.2169   15.1618   -0.5227 H   0  0  0  0  0  0  0  0  0  0  0  0
   -0.3150   15.2594    1.0795 H   0  0  0  0  0  0  0  0  0  0  0  0
   -0.8096   17.5510   -0.1223 H   0  0  0  0  0  0  0  0  0  0  0  0
    2.7067   16.3619   -1.7067 H   0  0  0  0  0  0  0  0  0  0  0  0
    3.4074   17.1792    1.1807 H   0  0  0  0  0  0  0  0  0  0  0  0
    4.5501   16.5362   -0.0814 H   0  0  0  0  0  0  0  0  0  0  0  0
    4.7403   18.9880    0.1946 H   0  0  0  0  0  0  0  0  0  0  0  0
    4.1883   18.5026   -1.4562 H   0  0  0  0  0  0  0  0  0  0  0  0
    2.8904   20.3879   -0.7351 H   0  0  0  0  0  0  0  0  0  0  0  0
    1.7080   20.2810    1.2300 H   0  0  0  0  0  0  0  0  0  0  0  0
    2.5745   19.3774   -2.7132 H   0  0  0  0  0  0  0  0  0  0  0  0
    1.5555   17.9113   -2.9105 H   0  0  0  0  0  0  0  0  0  0  0  0
    0.7964   19.5393   -2.9105 H   0  0  0  0  0  0  0  0  0  0  0  0
    0.1116   19.8233    0.4948 H   0  0  0  0  0  0  0  0  0  0  0  0
    0.3725   20.7505   -1.0214 H   0  0  0  0  0  0  0  0  0  0  0  0
   -0.7057   19.3137   -1.0214 H   0  0  0  0  0  0  0  0  0  0  0  0
    1.6659   15.3724    1.8631 H   0  0  0  0  0  0  0  0  0  0  0  0
    2.3846   13.7433    1.6266 H   0  0  0  0  0  0  0  0  0  0  0  0
    3.4380   15.1983    1.6266 H   0  0  0  0  0  0  0  0  0  0  0  0
    4.2879   14.6647   -0.9360 H   0  0  0  0  0  0  0  0  0  0  0  0
    3.4614   13.1680   -0.2212 H   0  0  0  0  0  0  0  0  0  0  0  0
    3.1010   14.3303   -2.9974 H   0  0  0  0  0  0  0  0  0  0  0  0
    3.8332   12.7473   -2.5229 H   0  0  0  0  0  0  0  0  0  0  0  0
    1.7080   11.9865   -0.2992 H   0  0  0  0  0  0  0  0  0  0  0  0
    0.8260   10.9966   -1.5111 H   0  0  0  0  0  0  0  0  0  0  0  0
    2.6220   11.0260   -1.5111 H   0  0  0  0  0  0  0  0  0  0  0  0
  1  2  1  0
  2  3  1  0
  3  4  1  0
  4  5  1  0
  5  6  1  0
  6  7  1  0
  7  8  1  0
  7  9  1  0
  2 10  1  0
 10 11  1  0
 11 12  1  0
 12 13  1  0
 13 14  1  6
 13 15  1  0
 15 16  1  0
 16 17  1  0
 17 18  2  0
 18 19  1  0
 19 20  1  0
 20 21  1  0
 21 22  1  0
 22 23  1  0
 22 24  1  0
 24 25  1  0
 24 26  1  0
 19 27  1  0
 27 28  1  1
 27 29  1  0
 29 30  1  0
 30 31  1  0
 31 32  1  1
  7  5  1  0
 31 10  1  0
 31 13  1  0
 27 15  1  0
 24 18  1  0
  1 33  1  0
  1 34  1  0
  1 35  1  0
  2 36  1  1
  3 37  1  0
  3 38  1  0
  4 39  1  0
  4 40  1  0
  5 41  1  1
  8 42  1  0
  8 43  1  0
  8 44  1  0
  9 45  1  0
  9 46  1  0
  9 47  1  0
 10 48  1  6
 11 49  1  0
 11 50  1  0
 12 51  1  0
 12 52  1  0
 14 53  1  0
 14 54  1  0
 14 55  1  0
 15 56  1  1
 16 57  1  0
 16 58  1  0
 17 59  1  0
 19 60  1  6
 20 61  1  0
 20 62  1  0
 21 63  1  0
 21 64  1  0
 22 65  1  6
 23 66  1  0
 25 67  1  0
 25 68  1  0
 25 69  1  0
 26 70  1  0
 26 71  1  0
 26 72  1  0
 28 73  1  0
 28 74  1  0
 28 75  1  0
 29 76  1  0
 29 77  1  0
 30 78  1  0
 30 79  1  0
 32 80  1  0
 32 81  1  0
 32 82  1  0
M  END
>  <meeko>  (15) 
{"is_sidechain": [false], "intermolecular_energy": 2.731, "internal_energy": -0.839}

$$$$
EPH_relaxed_0001_pdb2pqr_Repair_14_r2_0001_out
     RDKit          3D

 82 86  0  0  0  0  0  0  0  0999 V2000
    0.9710   14.8720   -2.6420 C   0  0  0  0  0  0  0  0  0  0  0  0
    1.2120   14.1950   -3.9940 C   0  0  2  0  0  0  0  0  0  0  0  0
    0.4960   14.9290   -5.1460 C   0  0  0  0  0  0  0  0  0  0  0  0
    1.0650   14.6050   -6.5300 C   0  0  0  0  0  0  0  0  0  0  0  0
    0.8360   15.7240   -7.5000 C   0  0  2  0  0  0  0  0  0  0  0  0
    0.3670   15.3110   -8.7900 O   0  0  0  0  0  0  0  0  0  0  0  0
    1.6640   15.9270   -8.7550 C   0  0  0  0  0  0  0  0  0  0  0  0
    2.7870   15.0020   -9.1070 C   0  0  0  0  0  0  0  0  0  0  0  0
    1.7020   17.2890   -9.3740 C   0  0  0  0  0  0  0  0  0  0  0  0
    0.7540   12.7420   -3.9380 C   0  0  1  0  0  0  0  0  0  0  0  0
    1.8840   11.7450   -4.3080 C   0  0  0  0  0  0  0  0  0  0  0  0
    1.6730   10.4840   -3.4310 C   0  0  0  0  0  0  0  0  0  0  0  0
    0.2570   10.6560   -2.8350 C   0  0  1  0  0  0  0  0  0  0  0  0
   -0.7140   10.1880   -3.9640 C   0  0  0  0  0  0  0  0  0  0  0  0
   -0.0220    9.9120   -1.4890 C   0  0  2  0  0  0  0  0  0  0  0  0
    0.0770    8.3780   -1.5590 C   0  0  0  0  0  0  0  0  0  0  0  0
   -1.1970    7.6720   -1.8880 C   0  0  0  0  0  0  0  0  0  0  0  0
   -2.4280    8.2150   -1.8390 C   0  0  0  0  0  0  0  0  0  0  0  0
   -2.6370    9.6450   -1.3250 C   0  0  1  0  0  0  0  0  0  0  0  0
   -3.8240    9.6670   -0.3260 C   0  0  0  0  0  0  0  0  0  0  0  0
   -5.0960    9.0670   -0.9150 C   0  0  0  0  0  0  0  0  0  0  0  0
   -4.8630    7.6250   -1.3610 C   0  0  2  0  0  0  0  0  0  0  0  0
   -4.6170    6.8190   -0.2050 O   0  0  0  0  0  0  0  0  0  0  0  0
   -3.6840    7.4770   -2.3630 C   0  0  0  0  0  0  0  0  0  0  0  0
   -4.0780    8.0970   -3.7260 C   0  0  0  0  0  0  0  0  0  0  0  0
   -3.4660    5.9620   -2.6220 C   0  0  0  0  0  0  0  0  0  0  0  0
   -1.3450   10.3730   -0.7540 C   0  0  1  0  0  0  0  0  0  0  0  0
   -1.1610   10.0250    0.7550 C   0  0  0  0  0  0  0  0  0  0  0  0
   -1.5580   11.9310   -0.8280 C   0  0  0  0  0  0  0  0  0  0  0  0
   -1.1530   12.6260   -2.1420 C   0  0  0  0  0  0  0  0  0  0  0  0
    0.2560   12.2060   -2.5720 C   0  0  2  0  0  0  0  0  0  0  0  0
    1.2570   12.6850   -1.4660 C   0  0  0  0  0  0  0  0  0  0  0  0
    1.2204   14.1714   -1.8315 H   0  0  0  0  0  0  0  0  0  0  0  0
    1.6059   15.7667   -2.5616 H   0  0  0  0  0  0  0  0  0  0  0  0
   -0.0864   15.1643   -2.5616 H   0  0  0  0  0  0  0  0  0  0  0  0
    2.2924   14.2360   -4.1965 H   0  0  0  0  0  0  0  0  0  0  0  0
   -0.5664   14.6443   -5.1320 H   0  0  0  0  0  0  0  0  0  0  0  0
    0.6440   16.0066   -4.9818 H   0  0  0  0  0  0  0  0  0  0  0  0
    2.1469   14.4288   -6.4382 H   0  0  0  0  0  0  0  0  0  0  0  0
    0.5505   13.7105   -6.9111 H   0  0  0  0  0  0  0  0  0  0  0  0
    0.5552   16.4054   -6.6834 H   0  0  0  0  0  0  0  0  0  0  0  0
    3.2503   14.6204   -8.1852 H   0  0  0  0  0  0  0  0  0  0  0  0
    2.3969   14.1597   -9.6972 H   0  0  0  0  0  0  0  0  0  0  0  0
    3.5390   15.5462   -9.6972 H   0  0  0  0  0  0  0  0  0  0  0  0
    1.7233   18.0515   -8.5814 H   0  0  0  0  0  0  0  0  0  0  0  0
    2.6031   17.3833   -9.9978 H   0  0  0  0  0  0  0  0  0  0  0  0
    0.8075   17.4334   -9.9978 H   0  0  0  0  0  0  0  0  0  0  0  0
   -0.0805   12.7837   -4.6534 H   0  0  0  0  0  0  0  0  0  0  0  0
    1.8213   11.4800   -5.3738 H   0  0  0  0  0  0  0  0  0  0  0  0
    2.8751   12.1880   -4.1307 H   0  0  0  0  0  0  0  0  0  0  0  0
    1.7286    9.5716   -4.0430 H   0  0  0  0  0  0  0  0  0  0  0  0
    2.4438   10.3834   -2.6527 H   0  0  0  0  0  0  0  0  0  0  0  0
   -1.6178    9.7524   -3.5130 H   0  0  0  0  0  0  0  0  0  0  0  0
   -0.9942   11.0500   -4.5873 H   0  0  0  0  0  0  0  0  0  0  0  0
   -0.2143    9.4318   -4.5873 H   0  0  0  0  0  0  0  0  0  0  0  0
    0.8205   10.2379   -0.8613 H   0  0  0  0  0  0  0  0  0  0  0  0
    0.8178    8.1198   -2.3301 H   0  0  0  0  0  0  0  0  0  0  0  0
    0.3584    8.0444   -0.5493 H   0  0  0  0  0  0  0  0  0  0  0  0
   -1.1235    6.6187   -2.1966 H   0  0  0  0  0  0  0  0  0  0  0  0
   -2.8807   10.2533   -2.2085 H   0  0  0  0  0  0  0  0  0  0  0  0
   -3.5433    9.0904    0.5677 H   0  0  0  0  0  0  0  0  0  0  0  0
   -4.0338   10.7185   -0.0804 H   0  0  0  0  0  0  0  0  0  0  0  0
   -5.8889    9.0845   -0.1527 H   0  0  0  0  0  0  0  0  0  0  0  0
   -5.3921    9.6623   -1.7913 H   0  0  0  0  0  0  0  0  0  0  0  0
   -5.7680    7.2928   -1.8908 H   0  0  0  0  0  0  0  0  0  0  0  0
   -5.3100    6.1390   -0.1670 H   0  0  0  0  0  0  0  0  0  0  0  0
   -4.6610    9.0143   -3.5567 H   0  0  0  0  0  0  0  0  0  0  0  0
   -3.1684    8.3403   -4.2948 H   0  0  0  0  0  0  0  0  0  0  0  0
   -4.6845    7.3768   -4.2948 H   0  0  0  0  0  0  0  0  0  0  0  0
   -3.3899    5.4329   -1.6606 H   0  0  0  0  0  0  0  0  0  0  0  0
   -4.3158    5.5619   -3.1945 H   0  0  0  0  0  0  0  0  0  0  0  0
   -2.5378    5.8177   -3.1945 H   0  0  0  0  0  0  0  0  0  0  0  0
   -1.5868   10.8303    1.3716 H   0  0  0  0  0  0  0  0  0  0  0  0
   -1.6772    9.0798    0.9789 H   0  0  0  0  0  0  0  0  0  0  0  0
   -0.0892    9.9194    0.9789 H   0  0  0  0  0  0  0  0  0  0  0  0
   -2.6274   12.1289   -0.6628 H   0  0  0  0  0  0  0  0  0  0  0  0
   -0.8880   12.3497   -0.0626 H   0  0  0  0  0  0  0  0  0  0  0  0
   -1.8677   12.3489   -2.9309 H   0  0  0  0  0  0  0  0  0  0  0  0
   -1.1610   13.7141   -1.9805 H   0  0  0  0  0  0  0  0  0  0  0  0
    0.8309   12.4811   -0.4726 H   0  0  0  0  0  0  0  0  0  0  0  0
    2.2091   12.1449   -1.5744 H   0  0  0  0  0  0  0  0  0  0  0  0
    1.4338   13.7653   -1.5744 H   0  0  0  0  0  0  0  0  0  0  0  0
  1  2  1  0
  2  3  1  0
  3  4  1  0
  4  5  1  0
  5  6  1  0
  6  7  1  0
  7  8  1  0
  7  9  1  0
  2 10  1  0
 10 11  1  0
 11 12  1  0
 12 13  1  0
 13 14  1  6
 13 15  1  0
 15 16  1  0
 16 17  1  0
 17 18  2  0
 18 19  1  0
 19 20  1  0
 20 21  1  0
 21 22  1  0
 22 23  1  0
 22 24  1  0
 24 25  1  0
 24 26  1  0
 19 27  1  0
 27 28  1  1
 27 29  1  0
 29 30  1  0
 30 31  1  0
 31 32  1  1
  7  5  1  0
 31 10  1  0
 31 13  1  0
 27 15  1  0
 24 18  1  0
  1 33  1  0
  1 34  1  0
  1 35  1  0
  2 36  1  6
  3 37  1  0
  3 38  1  0
  4 39  1  0
  4 40  1  0
  5 41  1  1
  8 42  1  0
  8 43  1  0
  8 44  1  0
  9 45  1  0
  9 46  1  0
  9 47  1  0
 10 48  1  6
 11 49  1  0
 11 50  1  0
 12 51  1  0
 12 52  1  0
 14 53  1  0
 14 54  1  0
 14 55  1  0
 15 56  1  1
 16 57  1  0
 16 58  1  0
 17 59  1  0
 19 60  1  6
 20 61  1  0
 20 62  1  0
 21 63  1  0
 21 64  1  0
 22 65  1  6
 23 66  1  0
 25 67  1  0
 25 68  1  0
 25 69  1  0
 26 70  1  0
 26 71  1  0
 26 72  1  0
 28 73  1  0
 28 74  1  0
 28 75  1  0
 29 76  1  0
 29 77  1  0
 30 78  1  0
 30 79  1  0
 32 80  1  0
 32 81  1  0
 32 82  1  0
M  END
>  <meeko>  (16) 
{"is_sidechain": [false], "intermolecular_energy": 2.731, "internal_energy": -0.839}

$$$$
EPH_relaxed_0001_pdb2pqr_Repair_14_r2_0001_out
     RDKit          3D

 82 86  0  0  0  0  0  0  0  0999 V2000
   -2.4510    7.7800   -0.0570 C   0  0  0  0  0  0  0  0  0  0  0  0
   -3.0790    9.1770   -0.0660 C   0  0  2  0  0  0  0  0  0  0  0  0
   -4.5680    9.1420   -0.4660 C   0  0  0  0  0  0  0  0  0  0  0  0
   -5.1610    7.7310   -0.5070 C   0  0  0  0  0  0  0  0  0  0  0  0
   -5.8940    7.4750   -1.7890 C   0  0  2  0  0  0  0  0  0  0  0  0
   -6.8610    8.4750   -2.1360 O   0  0  0  0  0  0  0  0  0  0  0  0
   -7.3770    7.1640   -1.8580 C   0  0  0  0  0  0  0  0  0  0  0  0
   -8.2170    7.0900   -0.6210 C   0  0  0  0  0  0  0  0  0  0  0  0
   -7.9050    6.4540   -3.0660 C   0  0  0  0  0  0  0  0  0  0  0  0
   -2.3070   10.0880   -1.0120 C   0  0  1  0  0  0  0  0  0  0  0  0
   -2.9500   11.4950   -1.1440 C   0  0  0  0  0  0  0  0  0  0  0  0
   -1.7850   12.5050   -1.3110 C   0  0  0  0  0  0  0  0  0  0  0  0
   -0.5460   11.6270   -1.6010 C   0  0  1  0  0  0  0  0  0  0  0  0
   -0.6390   11.2910   -3.1230 C   0  0  0  0  0  0  0  0  0  0  0  0
    0.8420   12.2450   -1.2310 C   0  0  2  0  0  0  0  0  0  0  0  0
    1.2100   13.5270   -1.9990 C   0  0  0  0  0  0  0  0  0  0  0  0
    1.9600   13.3140   -3.2730 C   0  0  0  0  0  0  0  0  0  0  0  0
    2.5710   12.1720   -3.6390 C   0  0  0  0  0  0  0  0  0  0  0  0
    2.6270   10.9680   -2.6890 C   0  0  1  0  0  0  0  0  0  0  0  0
    4.0690   10.3980   -2.6600 C   0  0  0  0  0  0  0  0  0  0  0  0
    4.5950   10.0660   -4.0530 C   0  0  0  0  0  0  0  0  0  0  0  0
    4.5780   11.3000   -4.9510 C   0  0  2  0  0  0  0  0  0  0  0  0
    5.5280   12.2470   -4.4510 O   0  0  0  0  0  0  0  0  0  0  0  0
    3.1770   11.9680   -5.0490 C   0  0  0  0  0  0  0  0  0  0  0  0
    2.2230   11.0580   -5.8620 C   0  0  0  0  0  0  0  0  0  0  0  0
    3.3290   13.2780   -5.8670 C   0  0  0  0  0  0  0  0  0  0  0  0
    2.0360   11.2070   -1.2330 C   0  0  1  0  0  0  0  0  0  0  0  0
    3.1390   11.7950   -0.3010 C   0  0  0  0  0  0  0  0  0  0  0  0
    1.6230    9.8200   -0.6120 C   0  0  0  0  0  0  0  0  0  0  0  0
    0.1980    9.3190   -0.9160 C   0  0  0  0  0  0  0  0  0  0  0  0
   -0.8370   10.4140   -0.6440 C   0  0  2  0  0  0  0  0  0  0  0  0
   -0.7820   10.7570    0.8840 C   0  0  0  0  0  0  0  0  0  0  0  0
   -2.3032    7.4511    0.9822 H   0  0  0  0  0  0  0  0  0  0  0  0
   -3.1186    7.0745   -0.5734 H   0  0  0  0  0  0  0  0  0  0  0  0
   -1.4802    7.8110   -0.5734 H   0  0  0  0  0  0  0  0  0  0  0  0
   -3.0218    9.5718    0.9591 H   0  0  0  0  0  0  0  0  0  0  0  0
   -5.1376    9.7371    0.2630 H   0  0  0  0  0  0  0  0  0  0  0  0
   -4.6368    9.5495   -1.4854 H   0  0  0  0  0  0  0  0  0  0  0  0
   -4.3459    6.9988   -0.4100 H   0  0  0  0  0  0  0  0  0  0  0  0
   -5.8771    7.6357    0.3225 H   0  0  0  0  0  0  0  0  0  0  0  0
   -5.0143    6.9733   -2.2185 H   0  0  0  0  0  0  0  0  0  0  0  0
   -7.5691    7.1471    0.2661 H   0  0  0  0  0  0  0  0  0  0  0  0
   -8.9284    7.9290   -0.6101 H   0  0  0  0  0  0  0  0  0  0  0  0
   -8.7707    6.1396   -0.6101 H   0  0  0  0  0  0  0  0  0  0  0  0
   -8.5336    5.6088   -2.7490 H   0  0  0  0  0  0  0  0  0  0  0  0
   -8.5054    7.1518   -3.6682 H   0  0  0  0  0  0  0  0  0  0  0  0
   -7.0640    6.0799   -3.6682 H   0  0  0  0  0  0  0  0  0  0  0  0
   -2.3394    9.4757   -1.9252 H   0  0  0  0  0  0  0  0  0  0  0  0
   -3.6099   11.5290   -2.0234 H   0  0  0  0  0  0  0  0  0  0  0  0
   -3.5582   11.7360   -0.2597 H   0  0  0  0  0  0  0  0  0  0  0  0
   -1.9812   13.1889   -2.1499 H   0  0  0  0  0  0  0  0  0  0  0  0
   -1.6495   13.1364   -0.4205 H   0  0  0  0  0  0  0  0  0  0  0  0
   -0.9305   10.2378   -3.2488 H   0  0  0  0  0  0  0  0  0  0  0  0
   -1.3916   11.9388   -3.5962 H   0  0  0  0  0  0  0  0  0  0  0  0
    0.3396   11.4597   -3.5962 H   0  0  0  0  0  0  0  0  0  0  0  0
    0.6914   12.5545   -0.1862 H   0  0  0  0  0  0  0  0  0  0  0  0
    0.2777   14.0594   -2.2383 H   0  0  0  0  0  0  0  0  0  0  0  0
    1.8841   14.0938   -1.3400 H   0  0  0  0  0  0  0  0  0  0  0  0
    2.0179   14.1621   -3.9711 H   0  0  0  0  0  0  0  0  0  0  0  0
    1.9382   10.2186   -3.1060 H   0  0  0  0  0  0  0  0  0  0  0  0
    4.7339   11.1442   -2.2006 H   0  0  0  0  0  0  0  0  0  0  0  0
    4.0470    9.4636   -2.0800 H   0  0  0  0  0  0  0  0  0  0  0  0
    5.6275    9.6960   -3.9692 H   0  0  0  0  0  0  0  0  0  0  0  0
    3.9462    9.2980   -4.4994 H   0  0  0  0  0  0  0  0  0  0  0  0
    4.8408   10.9717   -5.9674 H   0  0  0  0  0  0  0  0  0  0  0  0
    5.3330   13.1050   -4.8640 H   0  0  0  0  0  0  0  0  0  0  0  0
    1.6033   10.4669   -5.1717 H   0  0  0  0  0  0  0  0  0  0  0  0
    1.5742   11.6803   -6.4958 H   0  0  0  0  0  0  0  0  0  0  0  0
    2.8140   10.3805   -6.4958 H   0  0  0  0  0  0  0  0  0  0  0  0
    3.4279   14.1305   -5.1789 H   0  0  0  0  0  0  0  0  0  0  0  0
    4.2256   13.2125   -6.5009 H   0  0  0  0  0  0  0  0  0  0  0  0
    2.4413   13.4195   -6.5009 H   0  0  0  0  0  0  0  0  0  0  0  0
    2.8513   11.6416    0.7496 H   0  0  0  0  0  0  0  0  0  0  0  0
    4.0944   11.2865   -0.4975 H   0  0  0  0  0  0  0  0  0  0  0  0
    3.2494   12.8717   -0.4975 H   0  0  0  0  0  0  0  0  0  0  0  0
    2.3286    9.0641   -0.9873 H   0  0  0  0  0  0  0  0  0  0  0  0
    1.6477    9.9736    0.4769 H   0  0  0  0  0  0  0  0  0  0  0  0
    0.1387    9.0224   -1.9736 H   0  0  0  0  0  0  0  0  0  0  0  0
   -0.0191    8.4609   -0.2630 H   0  0  0  0  0  0  0  0  0  0  0  0
   -0.9292    9.8387    1.4714 H   0  0  0  0  0  0  0  0  0  0  0  0
    0.1977   11.1943    1.1266 H   0  0  0  0  0  0  0  0  0  0  0  0
   -1.5759   11.4787    1.1266 H   0  0  0  0  0  0  0  0  0  0  0  0
  1  2  1  0
  2  3  1  0
  3  4  1  0
  4  5  1  0
  5  6  1  0
  6  7  1  0
  7  8  1  0
  7  9  1  0
  2 10  1  0
 10 11  1  0
 11 12  1  0
 12 13  1  0
 13 14  1  6
 13 15  1  0
 15 16  1  0
 16 17  1  0
 17 18  2  0
 18 19  1  0
 19 20  1  0
 20 21  1  0
 21 22  1  0
 22 23  1  0
 22 24  1  0
 24 25  1  0
 24 26  1  0
 19 27  1  0
 27 28  1  1
 27 29  1  0
 29 30  1  0
 30 31  1  0
 31 32  1  1
  7  5  1  0
 31 10  1  0
 31 13  1  0
 27 15  1  0
 24 18  1  0
  1 33  1  0
  1 34  1  0
  1 35  1  0
  2 36  1  1
  3 37  1  0
  3 38  1  0
  4 39  1  0
  4 40  1  0
  5 41  1  6
  8 42  1  0
  8 43  1  0
  8 44  1  0
  9 45  1  0
  9 46  1  0
  9 47  1  0
 10 48  1  6
 11 49  1  0
 11 50  1  0
 12 51  1  0
 12 52  1  0
 14 53  1  0
 14 54  1  0
 14 55  1  0
 15 56  1  1
 16 57  1  0
 16 58  1  0
 17 59  1  0
 19 60  1  6
 20 61  1  0
 20 62  1  0
 21 63  1  0
 21 64  1  0
 22 65  1  6
 23 66  1  0
 25 67  1  0
 25 68  1  0
 25 69  1  0
 26 70  1  0
 26 71  1  0
 26 72  1  0
 28 73  1  0
 28 74  1  0
 28 75  1  0
 29 76  1  0
 29 77  1  0
 30 78  1  0
 30 79  1  0
 32 80  1  0
 32 81  1  0
 32 82  1  0
M  END
>  <meeko>  (17) 
{"is_sidechain": [false], "intermolecular_energy": 2.731, "internal_energy": -0.839}

$$$$
EPH_relaxed_0001_pdb2pqr_Repair_14_r2_0001_out
     RDKit          3D

 82 86  0  0  0  0  0  0  0  0999 V2000
   -5.1560    5.7950   -1.7070 C   0  0  0  0  0  0  0  0  0  0  0  0
   -5.4470    7.2980   -1.7550 C   0  0  2  0  0  0  0  0  0  0  0  0
   -5.2310    7.9750   -0.3870 C   0  0  0  0  0  0  0  0  0  0  0  0
   -4.1440    9.0530   -0.3980 C   0  0  0  0  0  0  0  0  0  0  0  0
   -2.8410    8.5210   -0.9110 C   0  0  2  0  0  0  0  0  0  0  0  0
   -1.7290    8.7020   -0.0240 O   0  0  0  0  0  0  0  0  0  0  0  0
   -1.6620    9.4040   -1.2750 C   0  0  0  0  0  0  0  0  0  0  0  0
   -1.7310   10.8930   -1.1420 C   0  0  0  0  0  0  0  0  0  0  0  0
   -0.6270    8.8660   -2.2140 C   0  0  0  0  0  0  0  0  0  0  0  0
   -6.8740    7.5350   -2.2350 C   0  0  1  0  0  0  0  0  0  0  0  0
   -7.1690    6.8480   -3.5950 C   0  0  0  0  0  0  0  0  0  0  0  0
   -8.6480    6.3840   -3.5490 C   0  0  0  0  0  0  0  0  0  0  0  0
   -9.2450    7.1040   -2.3170 C   0  0  1  0  0  0  0  0  0  0  0  0
   -9.5800    8.5440   -2.8180 C   0  0  0  0  0  0  0  0  0  0  0  0
  -10.4830    6.4210   -1.6520 C   0  0  2  0  0  0  0  0  0  0  0  0
  -11.7280    6.3080   -2.5500 C   0  0  0  0  0  0  0  0  0  0  0  0
  -12.6750    7.4590   -2.4750 C   0  0  0  0  0  0  0  0  0  0  0  0
  -12.6840    8.4040   -1.5160 C   0  0  0  0  0  0  0  0  0  0  0  0
  -11.7350    8.3150   -0.3140 C   0  0  1  0  0  0  0  0  0  0  0  0
  -12.5250    8.5930    0.9910 C   0  0  0  0  0  0  0  0  0  0  0  0
  -13.2850    9.9150    0.9450 C   0  0  0  0  0  0  0  0  0  0  0  0
  -14.2610    9.9420   -0.2290 C   0  0  2  0  0  0  0  0  0  0  0  0
  -15.2880    8.9730    0.0030 O   0  0  0  0  0  0  0  0  0  0  0  0
  -13.5800    9.6640   -1.5990 C   0  0  0  0  0  0  0  0  0  0  0  0
  -12.6880   10.8690   -1.9900 C   0  0  0  0  0  0  0  0  0  0  0  0
  -14.6930    9.5790   -2.6770 C   0  0  0  0  0  0  0  0  0  0  0  0
  -10.8520    6.9970   -0.2240 C   0  0  1  0  0  0  0  0  0  0  0  0
  -11.6430    5.8760    0.5170 C   0  0  0  0  0  0  0  0  0  0  0  0
   -9.5750    7.2920    0.6490 C   0  0  0  0  0  0  0  0  0  0  0  0
   -8.3440    7.8530   -0.0870 C   0  0  0  0  0  0  0  0  0  0  0  0
   -8.0230    7.0210   -1.3320 C   0  0  2  0  0  0  0  0  0  0  0  0
   -7.6590    5.5720   -0.8580 C   0  0  0  0  0  0  0  0  0  0  0  0
   -5.0925    5.4671   -0.6589 H   0  0  0  0  0  0  0  0  0  0  0  0
   -5.9650    5.2485   -2.2138 H   0  0  0  0  0  0  0  0  0  0  0  0
   -4.2015    5.5900   -2.2138 H   0  0  0  0  0  0  0  0  0  0  0  0
   -4.7368    7.7510   -2.4624 H   0  0  0  0  0  0  0  0  0  0  0  0
   -6.1782    8.4402   -0.0765 H   0  0  0  0  0  0  0  0  0  0  0  0
   -4.8994    7.1916    0.3103 H   0  0  0  0  0  0  0  0  0  0  0  0
   -4.4700    9.8813   -1.0442 H   0  0  0  0  0  0  0  0  0  0  0  0
   -3.9910    9.3961    0.6359 H   0  0  0  0  0  0  0  0  0  0  0  0
   -3.3572    7.7171   -1.4562 H   0  0  0  0  0  0  0  0  0  0  0  0
   -1.7436   11.1657   -0.0764 H   0  0  0  0  0  0  0  0  0  0  0  0
   -0.8529   11.3454   -1.6259 H   0  0  0  0  0  0  0  0  0  0  0  0
   -2.6472   11.2623   -1.6259 H   0  0  0  0  0  0  0  0  0  0  0  0
    0.2034    8.4343   -1.6361 H   0  0  0  0  0  0  0  0  0  0  0  0
   -1.0763    8.0873   -2.8479 H   0  0  0  0  0  0  0  0  0  0  0  0
   -0.2478    9.6811   -2.8479 H   0  0  0  0  0  0  0  0  0  0  0  0
   -6.8793    8.6347   -2.2605 H   0  0  0  0  0  0  0  0  0  0  0  0
   -7.0209    7.5607   -4.4197 H   0  0  0  0  0  0  0  0  0  0  0  0
   -6.4926    5.9970   -3.7631 H   0  0  0  0  0  0  0  0  0  0  0  0
   -9.1769    6.6813   -4.4665 H   0  0  0  0  0  0  0  0  0  0  0  0
   -8.7399    5.2902   -3.4779 H   0  0  0  0  0  0  0  0  0  0  0  0
   -9.7341    9.2064   -1.9534 H   0  0  0  0  0  0  0  0  0  0  0  0
   -8.7462    8.9237   -3.4268 H   0  0  0  0  0  0  0  0  0  0  0  0
  -10.4958    8.5166   -3.4268 H   0  0  0  0  0  0  0  0  0  0  0  0
  -10.1295    5.3905   -1.5002 H   0  0  0  0  0  0  0  0  0  0  0  0
  -11.3881    6.2149   -3.5920 H   0  0  0  0  0  0  0  0  0  0  0  0
  -12.2854    5.4314   -2.1883 H   0  0  0  0  0  0  0  0  0  0  0  0
  -13.4298    7.5424   -3.2708 H   0  0  0  0  0  0  0  0  0  0  0  0
  -10.9778    9.0983   -0.4657 H   0  0  0  0  0  0  0  0  0  0  0  0
  -13.2461    7.7771    1.1472 H   0  0  0  0  0  0  0  0  0  0  0  0
  -11.7982    8.6544    1.8144 H   0  0  0  0  0  0  0  0  0  0  0  0
  -13.8461   10.0406    1.8828 H   0  0  0  0  0  0  0  0  0  0  0  0
  -12.5603   10.7327    0.8183 H   0  0  0  0  0  0  0  0  0  0  0  0
  -14.6789   10.9579   -0.2871 H   0  0  0  0  0  0  0  0  0  0  0  0
  -15.3340    8.8170    0.9610 H   0  0  0  0  0  0  0  0  0  0  0  0
  -12.3212   11.3645   -1.0790 H   0  0  0  0  0  0  0  0  0  0  0  0
  -11.8329   10.5146   -2.5843 H   0  0  0  0  0  0  0  0  0  0  0  0
  -13.2766   11.5834   -2.5843 H   0  0  0  0  0  0  0  0  0  0  0  0
  -15.6743    9.5041   -2.1857 H   0  0  0  0  0  0  0  0  0  0  0  0
  -14.6652   10.4819   -3.3047 H   0  0  0  0  0  0  0  0  0  0  0  0
  -14.5284    8.6908   -3.3047 H   0  0  0  0  0  0  0  0  0  0  0  0
  -11.5449    6.0151    1.6037 H   0  0  0  0  0  0  0  0  0  0  0  0
  -12.7049    5.9289    0.2350 H   0  0  0  0  0  0  0  0  0  0  0  0
  -11.2372    4.8932    0.2350 H   0  0  0  0  0  0  0  0  0  0  0  0
   -9.8614    8.0208    1.4215 H   0  0  0  0  0  0  0  0  0  0  0  0
   -9.2575    6.3118    1.0343 H   0  0  0  0  0  0  0  0  0  0  0  0
   -8.5481    8.8905   -0.3904 H   0  0  0  0  0  0  0  0  0  0  0  0
   -7.4806    7.8134    0.5934 H   0  0  0  0  0  0  0  0  0  0  0  0
   -7.6503    5.5372    0.2414 H   0  0  0  0  0  0  0  0  0  0  0  0
   -8.4067    4.8621   -1.2414 H   0  0  0  0  0  0  0  0  0  0  0  0
   -6.6646    5.2998   -1.2414 H   0  0  0  0  0  0  0  0  0  0  0  0
  1  2  1  0
  2  3  1  0
  3  4  1  0
  4  5  1  0
  5  6  1  0
  6  7  1  0
  7  8  1  0
  7  9  1  0
  2 10  1  0
 10 11  1  0
 11 12  1  0
 12 13  1  0
 13 14  1  6
 13 15  1  0
 15 16  1  0
 16 17  1  0
 17 18  2  0
 18 19  1  0
 19 20  1  0
 20 21  1  0
 21 22  1  0
 22 23  1  0
 22 24  1  0
 24 25  1  0
 24 26  1  0
 19 27  1  0
 27 28  1  1
 27 29  1  0
 29 30  1  0
 30 31  1  0
 31 32  1  1
  7  5  1  0
 31 10  1  0
 31 13  1  0
 27 15  1  0
 24 18  1  0
  1 33  1  0
  1 34  1  0
  1 35  1  0
  2 36  1  6
  3 37  1  0
  3 38  1  0
  4 39  1  0
  4 40  1  0
  5 41  1  6
  8 42  1  0
  8 43  1  0
  8 44  1  0
  9 45  1  0
  9 46  1  0
  9 47  1  0
 10 48  1  6
 11 49  1  0
 11 50  1  0
 12 51  1  0
 12 52  1  0
 14 53  1  0
 14 54  1  0
 14 55  1  0
 15 56  1  1
 16 57  1  0
 16 58  1  0
 17 59  1  0
 19 60  1  6
 20 61  1  0
 20 62  1  0
 21 63  1  0
 21 64  1  0
 22 65  1  6
 23 66  1  0
 25 67  1  0
 25 68  1  0
 25 69  1  0
 26 70  1  0
 26 71  1  0
 26 72  1  0
 28 73  1  0
 28 74  1  0
 28 75  1  0
 29 76  1  0
 29 77  1  0
 30 78  1  0
 30 79  1  0
 32 80  1  0
 32 81  1  0
 32 82  1  0
M  END
>  <meeko>  (18) 
{"is_sidechain": [false], "intermolecular_energy": 2.731, "internal_energy": -0.839}

$$$$
