EPH_relaxed_0001_pdb2pqr_Repair_138_r2_0001_out
     RDKit          3D

 82 86  0  0  0  0  0  0  0  0999 V2000
    3.8760   18.0510    0.5870 C   0  0  0  0  0  0  0  0  0  0  0  0
    2.9640   18.4570   -0.5740 C   0  0  2  0  0  0  0  0  0  0  0  0
    2.2050   19.7680   -0.2860 C   0  0  0  0  0  0  0  0  0  0  0  0
    1.1670   19.6450    0.8320 C   0  0  0  0  0  0  0  0  0  0  0  0
   -0.1640   20.1940    0.4160 C   0  0  2  0  0  0  0  0  0  0  0  0
   -1.1620   20.1930    1.4450 O   0  0  0  0  0  0  0  0  0  0  0  0
   -1.4210   19.3510    0.3100 C   0  0  0  0  0  0  0  0  0  0  0  0
   -1.4080   17.8880    0.6220 C   0  0  0  0  0  0  0  0  0  0  0  0
   -2.5390   19.8390   -0.5580 C   0  0  0  0  0  0  0  0  0  0  0  0
    1.9740   17.3380   -0.8730 C   0  0  1  0  0  0  0  0  0  0  0  0
    0.8250   17.7920   -1.8130 C   0  0  0  0  0  0  0  0  0  0  0  0
    0.4720   16.5760   -2.7080 C   0  0  0  0  0  0  0  0  0  0  0  0
    1.1870   15.3790   -2.0390 C   0  0  1  0  0  0  0  0  0  0  0  0
    0.2460   14.9510   -0.8700 C   0  0  0  0  0  0  0  0  0  0  0  0
    1.5340   14.1720   -2.9710 C   0  0  2  0  0  0  0  0  0  0  0  0
    0.3220   13.4670   -3.6040 C   0  0  0  0  0  0  0  0  0  0  0  0
   -0.2390   12.3320   -2.8140 C   0  0  0  0  0  0  0  0  0  0  0  0
    0.3760   11.7130   -1.7890 C   0  0  0  0  0  0  0  0  0  0  0  0
    1.8120   12.0810   -1.3930 C   0  0  1  0  0  0  0  0  0  0  0  0
    2.6410   10.7860   -1.1880 C   0  0  0  0  0  0  0  0  0  0  0  0
    1.9910    9.8260   -0.1960 C   0  0  0  0  0  0  0  0  0  0  0  0
    0.5870    9.4370   -0.6540 C   0  0  2  0  0  0  0  0  0  0  0  0
    0.6910    8.6620   -1.8520 O   0  0  0  0  0  0  0  0  0  0  0  0
   -0.3370   10.6620   -0.9030 C   0  0  0  0  0  0  0  0  0  0  0  0
   -0.6940   11.3280    0.4490 C   0  0  0  0  0  0  0  0  0  0  0  0
   -1.6740   10.1380   -1.4940 C   0  0  0  0  0  0  0  0  0  0  0  0
    2.5430   13.1310   -2.3360 C   0  0  1  0  0  0  0  0  0  0  0  0
    3.2270   12.3910   -3.5260 C   0  0  0  0  0  0  0  0  0  0  0  0
    3.6960   13.8330   -1.5270 C   0  0  0  0  0  0  0  0  0  0  0  0
    3.3150   15.0890   -0.7210 C   0  0  0  0  0  0  0  0  0  0  0  0
    2.5210   16.0750   -1.5840 C   0  0  2  0  0  0  0  0  0  0  0  0
    3.4510   16.5400   -2.7570 C   0  0  0  0  0  0  0  0  0  0  0  0
    3.3760   18.2736    1.5412 H   0  0  0  0  0  0  0  0  0  0  0  0
    4.0883   16.9734    0.5269 H   0  0  0  0  0  0  0  0  0  0  0  0
    4.8189   18.6144    0.5269 H   0  0  0  0  0  0  0  0  0  0  0  0
    3.6041   18.6320   -1.4513 H   0  0  0  0  0  0  0  0  0  0  0  0
    2.9369   20.5368    0.0026 H   0  0  0  0  0  0  0  0  0  0  0  0
    1.6592   20.0318   -1.2039 H   0  0  0  0  0  0  0  0  0  0  0  0
    1.0486   18.5830    1.0932 H   0  0  0  0  0  0  0  0  0  0  0  0
    1.5228   20.2262    1.6955 H   0  0  0  0  0  0  0  0  0  0  0  0
    0.3177   20.8922   -0.2844 H   0  0  0  0  0  0  0  0  0  0  0  0
   -1.4067   17.7457    1.7128 H   0  0  0  0  0  0  0  0  0  0  0  0
   -2.3020   17.4133    0.1913 H   0  0  0  0  0  0  0  0  0  0  0  0
   -0.5057   17.4292    0.1913 H   0  0  0  0  0  0  0  0  0  0  0  0
   -3.3639   20.1990    0.0744 H   0  0  0  0  0  0  0  0  0  0  0  0
   -2.1780   20.6614   -1.1931 H   0  0  0  0  0  0  0  0  0  0  0  0
   -2.8966   19.0151   -1.1931 H   0  0  0  0  0  0  0  0  0  0  0  0
    1.6638   17.0881    0.1524 H   0  0  0  0  0  0  0  0  0  0  0  0
   -0.0517   18.0938   -1.2211 H   0  0  0  0  0  0  0  0  0  0  0  0
    1.1311   18.6551   -2.4223 H   0  0  0  0  0  0  0  0  0  0  0  0
   -0.6158   16.4144   -2.7323 H   0  0  0  0  0  0  0  0  0  0  0  0
    0.7879   16.7204   -3.7517 H   0  0  0  0  0  0  0  0  0  0  0  0
    0.7321   15.1721    0.0917 H   0  0  0  0  0  0  0  0  0  0  0  0
   -0.7005   15.5072   -0.9388 H   0  0  0  0  0  0  0  0  0  0  0  0
    0.0432   13.8721   -0.9388 H   0  0  0  0  0  0  0  0  0  0  0  0
    2.0625   14.6608   -3.8027 H   0  0  0  0  0  0  0  0  0  0  0  0
   -0.4741   14.2142   -3.7381 H   0  0  0  0  0  0  0  0  0  0  0  0
    0.6816   13.0323   -4.5483 H   0  0  0  0  0  0  0  0  0  0  0  0
   -1.2398   11.9706   -3.0929 H   0  0  0  0  0  0  0  0  0  0  0  0
    1.7347   12.6284   -0.4420 H   0  0  0  0  0  0  0  0  0  0  0  0
    2.7433   10.2757   -2.1571 H   0  0  0  0  0  0  0  0  0  0  0  0
    3.6195   11.0773   -0.7785 H   0  0  0  0  0  0  0  0  0  0  0  0
    2.6079    8.9188   -0.1158 H   0  0  0  0  0  0  0  0  0  0  0  0
    1.9159   10.3272    0.7803 H   0  0  0  0  0  0  0  0  0  0  0  0
    0.1249    8.8547    0.1568 H   0  0  0  0  0  0  0  0  0  0  0  0
   -0.0900    8.8560   -2.3970 H   0  0  0  0  0  0  0  0  0  0  0  0
   -0.3508   10.6878    1.2750 H   0  0  0  0  0  0  0  0  0  0  0  0
   -0.2008   12.3089    0.5161 H   0  0  0  0  0  0  0  0  0  0  0  0
   -1.7840   11.4603    0.5161 H   0  0  0  0  0  0  0  0  0  0  0  0
   -2.3572    9.8702   -0.6745 H   0  0  0  0  0  0  0  0  0  0  0  0
   -2.1337   10.9225   -2.1131 H   0  0  0  0  0  0  0  0  0  0  0  0
   -1.4782    9.2501   -2.1131 H   0  0  0  0  0  0  0  0  0  0  0  0
    3.9250   11.6358   -3.1356 H   0  0  0  0  0  0  0  0  0  0  0  0
    2.4597   11.8980   -4.1409 H   0  0  0  0  0  0  0  0  0  0  0  0
    3.7788   13.1172   -4.1409 H   0  0  0  0  0  0  0  0  0  0  0  0
    4.1033   13.0951   -0.8202 H   0  0  0  0  0  0  0  0  0  0  0  0
    4.4080   14.1850   -2.2881 H   0  0  0  0  0  0  0  0  0  0  0  0
    2.7010   14.7904    0.1415 H   0  0  0  0  0  0  0  0  0  0  0  0
    4.2384   15.5828   -0.3841 H   0  0  0  0  0  0  0  0  0  0  0  0
    4.3627   16.9958   -2.3434 H   0  0  0  0  0  0  0  0  0  0  0  0
    3.7231   15.6719   -3.3754 H   0  0  0  0  0  0  0  0  0  0  0  0
    2.9198   17.2786   -3.3754 H   0  0  0  0  0  0  0  0  0  0  0  0
  1  2  1  0
  2  3  1  0
  3  4  1  0
  4  5  1  0
  5  6  1  0
  6  7  1  0
  7  8  1  0
  7  9  1  0
  2 10  1  0
 10 11  1  0
 11 12  1  0
 12 13  1  0
 13 14  1  1
 13 15  1  0
 15 16  1  0
 16 17  1  0
 17 18  2  0
 18 19  1  0
 19 20  1  0
 20 21  1  0
 21 22  1  0
 22 23  1  0
 22 24  1  0
 24 25  1  0
 24 26  1  0
 19 27  1  0
 27 28  1  6
 27 29  1  0
 29 30  1  0
 30 31  1  0
 31 32  1  6
  7  5  1  0
 31 10  1  0
 31 13  1  0
 27 15  1  0
 24 18  1  0
  1 33  1  0
  1 34  1  0
  1 35  1  0
  2 36  1  6
  3 37  1  0
  3 38  1  0
  4 39  1  0
  4 40  1  0
  5 41  1  6
  8 42  1  0
  8 43  1  0
  8 44  1  0
  9 45  1  0
  9 46  1  0
  9 47  1  0
 10 48  1  1
 11 49  1  0
 11 50  1  0
 12 51  1  0
 12 52  1  0
 14 53  1  0
 14 54  1  0
 14 55  1  0
 15 56  1  6
 16 57  1  0
 16 58  1  0
 17 59  1  0
 19 60  1  1
 20 61  1  0
 20 62  1  0
 21 63  1  0
 21 64  1  0
 22 65  1  1
 23 66  1  0
 25 67  1  0
 25 68  1  0
 25 69  1  0
 26 70  1  0
 26 71  1  0
 26 72  1  0
 28 73  1  0
 28 74  1  0
 28 75  1  0
 29 76  1  0
 29 77  1  0
 30 78  1  0
 30 79  1  0
 32 80  1  0
 32 81  1  0
 32 82  1  0
M  END
>  <meeko>  (1) 
{"is_sidechain": [false], "intermolecular_energy": 2.731, "internal_energy": -0.839}

$$$$
EPH_relaxed_0001_pdb2pqr_Repair_138_r2_0001_out
     RDKit          3D

 82 86  0  0  0  0  0  0  0  0999 V2000
    4.4840   17.7640   -0.7330 C   0  0  0  0  0  0  0  0  0  0  0  0
    3.1020   18.3220   -0.3820 C   0  0  2  0  0  0  0  0  0  0  0  0
    3.0590   18.9150    1.0410 C   0  0  0  0  0  0  0  0  0  0  0  0
    4.3440   18.6850    1.8420 C   0  0  0  0  0  0  0  0  0  0  0  0
    4.2260   19.2100    3.2410 C   0  0  2  0  0  0  0  0  0  0  0  0
    5.2060   20.1940    3.5960 O   0  0  0  0  0  0  0  0  0  0  0  0
    5.2610   18.9540    4.3200 C   0  0  0  0  0  0  0  0  0  0  0  0
    6.4890   18.1440    4.0480 C   0  0  0  0  0  0  0  0  0  0  0  0
    4.8450   19.0750    5.7530 C   0  0  0  0  0  0  0  0  0  0  0  0
    2.0490   17.2300   -0.5230 C   0  0  1  0  0  0  0  0  0  0  0  0
    0.7090   17.7620   -1.0970 C   0  0  0  0  0  0  0  0  0  0  0  0
    0.1210   16.6330   -1.9810 C   0  0  0  0  0  0  0  0  0  0  0  0
    0.9600   15.3830   -1.6260 C   0  0  1  0  0  0  0  0  0  0  0  0
    0.3340   14.8440   -0.3010 C   0  0  0  0  0  0  0  0  0  0  0  0
    1.0400   14.2700   -2.7210 C   0  0  2  0  0  0  0  0  0  0  0  0
   -0.3050   13.6190   -3.0890 C   0  0  0  0  0  0  0  0  0  0  0  0
   -0.6700   12.4120   -2.2890 C   0  0  0  0  0  0  0  0  0  0  0  0
    0.1710   11.7050   -1.5130 C   0  0  0  0  0  0  0  0  0  0  0  0
    1.6670   12.0430   -1.4600 C   0  0  1  0  0  0  0  0  0  0  0  0
    2.4980   10.7400   -1.5890 C   0  0  0  0  0  0  0  0  0  0  0  0
    2.1000    9.6880   -0.5570 C   0  0  0  0  0  0  0  0  0  0  0  0
    0.6200    9.3360   -0.6790 C   0  0  2  0  0  0  0  0  0  0  0  0
    0.4060    8.6750   -1.9300 O   0  0  0  0  0  0  0  0  0  0  0  0
   -0.3150   10.5730   -0.5750 C   0  0  0  0  0  0  0  0  0  0  0  0
   -0.3080   11.1090    0.8780 C   0  0  0  0  0  0  0  0  0  0  0  0
   -1.7660   10.0990   -0.8560 C   0  0  0  0  0  0  0  0  0  0  0  0
    2.1560   13.1800   -2.4570 C   0  0  1  0  0  0  0  0  0  0  0  0
    2.5070   12.5570   -3.8430 C   0  0  0  0  0  0  0  0  0  0  0  0
    3.4890   13.8100   -1.9040 C   0  0  0  0  0  0  0  0  0  0  0  0
    3.3450   14.9850   -0.9170 C   0  0  0  0  0  0  0  0  0  0  0  0
    2.3770   16.0410   -1.4600 C   0  0  2  0  0  0  0  0  0  0  0  0
    2.9910   16.6180   -2.7820 C   0  0  0  0  0  0  0  0  0  0  0  0
    5.0354   17.5414    0.1924 H   0  0  0  0  0  0  0  0  0  0  0  0
    4.3685   16.8421   -1.3218 H   0  0  0  0  0  0  0  0  0  0  0  0
    5.0410   18.5077   -1.3218 H   0  0  0  0  0  0  0  0  0  0  0  0
    2.8868   19.1389   -1.0866 H   0  0  0  0  0  0  0  0  0  0  0  0
    2.8889   19.9988    0.9608 H   0  0  0  0  0  0  0  0  0  0  0  0
    2.2482   18.4021    1.5791 H   0  0  0  0  0  0  0  0  0  0  0  0
    4.5505   17.6053    1.8825 H   0  0  0  0  0  0  0  0  0  0  0  0
    5.1617   19.2239    1.3411 H   0  0  0  0  0  0  0  0  0  0  0  0
    3.1335   19.0834    3.2216 H   0  0  0  0  0  0  0  0  0  0  0  0
    6.9474   17.8416    5.0011 H   0  0  0  0  0  0  0  0  0  0  0  0
    6.2167   17.2476    3.4714 H   0  0  0  0  0  0  0  0  0  0  0  0
    7.2058   18.7471    3.4714 H   0  0  0  0  0  0  0  0  0  0  0  0
    5.6963   18.8274    6.4041 H   0  0  0  0  0  0  0  0  0  0  0  0
    4.5173   20.1057    5.9539 H   0  0  0  0  0  0  0  0  0  0  0  0
    4.0157   18.3809    5.9539 H   0  0  0  0  0  0  0  0  0  0  0  0
    2.0024   16.8847    0.5204 H   0  0  0  0  0  0  0  0  0  0  0  0
    0.0150   18.0021   -0.2781 H   0  0  0  0  0  0  0  0  0  0  0  0
    0.8670   18.6799   -1.6823 H   0  0  0  0  0  0  0  0  0  0  0  0
   -0.9407   16.4680   -1.7450 H   0  0  0  0  0  0  0  0  0  0  0  0
    0.1668   16.8757   -3.0529 H   0  0  0  0  0  0  0  0  0  0  0  0
    0.8539   15.2917    0.5588 H   0  0  0  0  0  0  0  0  0  0  0  0
   -0.7325   15.1109   -0.2642 H   0  0  0  0  0  0  0  0  0  0  0  0
    0.4396   13.7497   -0.2642 H   0  0  0  0  0  0  0  0  0  0  0  0
    1.3514   14.8367   -3.6109 H   0  0  0  0  0  0  0  0  0  0  0  0
   -1.0958   14.3708   -2.9498 H   0  0  0  0  0  0  0  0  0  0  0  0
   -0.2020   13.2750   -4.1287 H   0  0  0  0  0  0  0  0  0  0  0  0
   -1.7151   12.0723   -2.3385 H   0  0  0  0  0  0  0  0  0  0  0  0
    1.8407   12.4995   -0.4744 H   0  0  0  0  0  0  0  0  0  0  0  0
    2.3454   10.3225   -2.5952 H   0  0  0  0  0  0  0  0  0  0  0  0
    3.5529   10.9977   -1.4137 H   0  0  0  0  0  0  0  0  0  0  0  0
    2.7003    8.7804   -0.7183 H   0  0  0  0  0  0  0  0  0  0  0  0
    2.2819   10.0961    0.4482 H   0  0  0  0  0  0  0  0  0  0  0  0
    0.3660    8.6797    0.1664 H   0  0  0  0  0  0  0  0  0  0  0  0
   -0.1970    7.9290   -1.7700 H   0  0  0  0  0  0  0  0  0  0  0  0
   -0.3190   10.2630    1.5810 H   0  0  0  0  0  0  0  0  0  0  0  0
    0.5981   11.7106    1.0425 H   0  0  0  0  0  0  0  0  0  0  0  0
   -1.1981   11.7341    1.0425 H   0  0  0  0  0  0  0  0  0  0  0  0
   -2.2873    9.9287    0.0976 H   0  0  0  0  0  0  0  0  0  0  0  0
   -2.2984   10.8699   -1.4324 H   0  0  0  0  0  0  0  0  0  0  0  0
   -1.7406    9.1624   -1.4324 H   0  0  0  0  0  0  0  0  0  0  0  0
    3.0419   11.6075   -3.6933 H   0  0  0  0  0  0  0  0  0  0  0  0
    1.5808   12.3712   -4.4066 H   0  0  0  0  0  0  0  0  0  0  0  0
    3.1458   13.2529   -4.4066 H   0  0  0  0  0  0  0  0  0  0  0  0
    4.0470   13.0120   -1.3923 H   0  0  0  0  0  0  0  0  0  0  0  0
    3.9940   14.2339   -2.7845 H   0  0  0  0  0  0  0  0  0  0  0  0
    2.9623   14.6049    0.0417 H   0  0  0  0  0  0  0  0  0  0  0  0
    4.3319   15.4510   -0.7797 H   0  0  0  0  0  0  0  0  0  0  0  0
    3.7719   17.3519   -2.5338 H   0  0  0  0  0  0  0  0  0  0  0  0
    3.4310   15.7990   -3.3699 H   0  0  0  0  0  0  0  0  0  0  0  0
    2.2009   17.1080   -3.3699 H   0  0  0  0  0  0  0  0  0  0  0  0
  1  2  1  0
  2  3  1  0
  3  4  1  0
  4  5  1  0
  5  6  1  0
  6  7  1  0
  7  8  1  0
  7  9  1  0
  2 10  1  0
 10 11  1  0
 11 12  1  0
 12 13  1  0
 13 14  1  1
 13 15  1  0
 15 16  1  0
 16 17  1  0
 17 18  2  0
 18 19  1  0
 19 20  1  0
 20 21  1  0
 21 22  1  0
 22 23  1  0
 22 24  1  0
 24 25  1  0
 24 26  1  0
 19 27  1  0
 27 28  1  6
 27 29  1  0
 29 30  1  0
 30 31  1  0
 31 32  1  6
  7  5  1  0
 31 10  1  0
 31 13  1  0
 27 15  1  0
 24 18  1  0
  1 33  1  0
  1 34  1  0
  1 35  1  0
  2 36  1  6
  3 37  1  0
  3 38  1  0
  4 39  1  0
  4 40  1  0
  5 41  1  1
  8 42  1  0
  8 43  1  0
  8 44  1  0
  9 45  1  0
  9 46  1  0
  9 47  1  0
 10 48  1  1
 11 49  1  0
 11 50  1  0
 12 51  1  0
 12 52  1  0
 14 53  1  0
 14 54  1  0
 14 55  1  0
 15 56  1  6
 16 57  1  0
 16 58  1  0
 17 59  1  0
 19 60  1  1
 20 61  1  0
 20 62  1  0
 21 63  1  0
 21 64  1  0
 22 65  1  1
 23 66  1  0
 25 67  1  0
 25 68  1  0
 25 69  1  0
 26 70  1  0
 26 71  1  0
 26 72  1  0
 28 73  1  0
 28 74  1  0
 28 75  1  0
 29 76  1  0
 29 77  1  0
 30 78  1  0
 30 79  1  0
 32 80  1  0
 32 81  1  0
 32 82  1  0
M  END
>  <meeko>  (2) 
{"is_sidechain": [false], "intermolecular_energy": 2.731, "internal_energy": -0.839}

$$$$
EPH_relaxed_0001_pdb2pqr_Repair_138_r2_0001_out
     RDKit          3D

 82 86  0  0  0  0  0  0  0  0999 V2000
    2.4200   18.1390   -2.3020 C   0  0  0  0  0  0  0  0  0  0  0  0
    1.7920   17.3880   -1.1240 C   0  0  2  0  0  0  0  0  0  0  0  0
    2.8420   16.9680   -0.0770 C   0  0  0  0  0  0  0  0  0  0  0  0
    3.8610   18.0640    0.2470 C   0  0  0  0  0  0  0  0  0  0  0  0
    3.5840   18.7060    1.5720 C   0  0  2  0  0  0  0  0  0  0  0  0
    3.9680   20.0840    1.6630 O   0  0  0  0  0  0  0  0  0  0  0  0
    4.6720   19.1720    2.5210 C   0  0  0  0  0  0  0  0  0  0  0  0
    6.1220   19.0150    2.1820 C   0  0  0  0  0  0  0  0  0  0  0  0
    4.3390   19.3300    3.9710 C   0  0  0  0  0  0  0  0  0  0  0  0
    1.0430   16.1610   -1.6310 C   0  0  1  0  0  0  0  0  0  0  0  0
    0.5360   16.3300   -3.0880 C   0  0  0  0  0  0  0  0  0  0  0  0
    0.6330   14.9360   -3.7600 C   0  0  0  0  0  0  0  0  0  0  0  0
    0.8710   13.9550   -2.5880 C   0  0  1  0  0  0  0  0  0  0  0  0
   -0.5450   13.7040   -1.9810 C   0  0  0  0  0  0  0  0  0  0  0  0
    1.5920   12.6140   -2.9460 C   0  0  2  0  0  0  0  0  0  0  0  0
    0.8330   11.7080   -3.9310 C   0  0  0  0  0  0  0  0  0  0  0  0
   -0.0910   10.7170   -3.3040 C   0  0  0  0  0  0  0  0  0  0  0  0
   -0.0960   10.3650   -2.0050 C   0  0  0  0  0  0  0  0  0  0  0  0
    0.9620   10.9110   -1.0370 C   0  0  1  0  0  0  0  0  0  0  0  0
    1.5270    9.7490   -0.1780 C   0  0  0  0  0  0  0  0  0  0  0  0
    0.4320    8.9640    0.5370 C   0  0  0  0  0  0  0  0  0  0  0  0
   -0.5680    8.3880   -0.4630 C   0  0  2  0  0  0  0  0  0  0  0  0
    0.0920    7.3960   -1.2560 O   0  0  0  0  0  0  0  0  0  0  0  0
   -1.1960    9.4650   -1.3900 C   0  0  0  0  0  0  0  0  0  0  0  0
   -2.1560   10.3620   -0.5700 C   0  0  0  0  0  0  0  0  0  0  0  0
   -2.0760    8.7360   -2.4410 C   0  0  0  0  0  0  0  0  0  0  0  0
    2.1060   11.8000   -1.6900 C   0  0  1  0  0  0  0  0  0  0  0  0
    3.2650   10.8880   -2.1950 C   0  0  0  0  0  0  0  0  0  0  0  0
    2.7260   12.7340   -0.5840 C   0  0  0  0  0  0  0  0  0  0  0  0
    2.0400   14.0950   -0.3610 C   0  0  0  0  0  0  0  0  0  0  0  0
    1.8240   14.8250   -1.6900 C   0  0  2  0  0  0  0  0  0  0  0  0
    3.2320   15.1110   -2.3140 C   0  0  0  0  0  0  0  0  0  0  0  0
    3.0820   18.9307   -1.9211 H   0  0  0  0  0  0  0  0  0  0  0  0
    3.0035   17.4367   -2.9154 H   0  0  0  0  0  0  0  0  0  0  0  0
    1.6255   18.5890   -2.9154 H   0  0  0  0  0  0  0  0  0  0  0  0
    1.0897   18.0753   -0.6296 H   0  0  0  0  0  0  0  0  0  0  0  0
    2.3176   16.6961    0.8509 H   0  0  0  0  0  0  0  0  0  0  0  0
    3.4029   16.1240   -0.5050 H   0  0  0  0  0  0  0  0  0  0  0  0
    4.8670   17.6196    0.2699 H   0  0  0  0  0  0  0  0  0  0  0  0
    3.7891   18.8388   -0.5305 H   0  0  0  0  0  0  0  0  0  0  0  0
    2.6986   18.0703    1.7199 H   0  0  0  0  0  0  0  0  0  0  0  0
    6.7105   18.9513    3.1092 H   0  0  0  0  0  0  0  0  0  0  0  0
    6.2637   18.0963    1.5939 H   0  0  0  0  0  0  0  0  0  0  0  0
    6.4570   19.8821    1.5939 H   0  0  0  0  0  0  0  0  0  0  0  0
    5.1655   18.9379    4.5819 H   0  0  0  0  0  0  0  0  0  0  0  0
    4.1883   20.3956    4.1986 H   0  0  0  0  0  0  0  0  0  0  0  0
    3.4183   18.7727    4.1986 H   0  0  0  0  0  0  0  0  0  0  0  0
    0.2519   16.1005   -0.8691 H   0  0  0  0  0  0  0  0  0  0  0  0
   -0.5073   16.6787   -3.0880 H   0  0  0  0  0  0  0  0  0  0  0  0
    1.1375   17.0733   -3.6318 H   0  0  0  0  0  0  0  0  0  0  0  0
   -0.3016   14.6927   -4.2867 H   0  0  0  0  0  0  0  0  0  0  0  0
    1.4341   14.8899   -4.5125 H   0  0  0  0  0  0  0  0  0  0  0  0
   -0.4805   13.7154   -0.8830 H   0  0  0  0  0  0  0  0  0  0  0  0
   -1.2329   14.4942   -2.3161 H   0  0  0  0  0  0  0  0  0  0  0  0
   -0.9194   12.7255   -2.3161 H   0  0  0  0  0  0  0  0  0  0  0  0
    2.4838   12.9623   -3.4877 H   0  0  0  0  0  0  0  0  0  0  0  0
    0.2397   12.3519   -4.5969 H   0  0  0  0  0  0  0  0  0  0  0  0
    1.5999   11.1193   -4.4556 H   0  0  0  0  0  0  0  0  0  0  0  0
   -0.8304   10.2335   -3.9593 H   0  0  0  0  0  0  0  0  0  0  0  0
    0.4401   11.6325   -0.3912 H   0  0  0  0  0  0  0  0  0  0  0  0
    2.0816    9.0625   -0.8346 H   0  0  0  0  0  0  0  0  0  0  0  0
    2.1789   10.1888    0.5911 H   0  0  0  0  0  0  0  0  0  0  0  0
    0.8908    8.1397    1.1027 H   0  0  0  0  0  0  0  0  0  0  0  0
   -0.1025    9.6452    1.2154 H   0  0  0  0  0  0  0  0  0  0  0  0
   -1.3957    7.9492    0.1136 H   0  0  0  0  0  0  0  0  0  0  0  0
   -0.5860    6.9450   -1.7870 H   0  0  0  0  0  0  0  0  0  0  0  0
   -1.9821   10.1995    0.5039 H   0  0  0  0  0  0  0  0  0  0  0  0
   -1.9707   11.4181   -0.8158 H   0  0  0  0  0  0  0  0  0  0  0  0
   -3.1971   10.1056   -0.8158 H   0  0  0  0  0  0  0  0  0  0  0  0
   -2.8245    8.1160   -1.9259 H   0  0  0  0  0  0  0  0  0  0  0  0
   -2.5865    9.4794   -3.0709 H   0  0  0  0  0  0  0  0  0  0  0  0
   -1.4405    8.0961   -3.0709 H   0  0  0  0  0  0  0  0  0  0  0  0
    3.8016   10.4657   -1.3326 H   0  0  0  0  0  0  0  0  0  0  0  0
    2.8502   10.0715   -2.8044 H   0  0  0  0  0  0  0  0  0  0  0  0
    3.9610   11.4832   -2.8044 H   0  0  0  0  0  0  0  0  0  0  0  0
    2.6964   12.1861    0.3694 H   0  0  0  0  0  0  0  0  0  0  0  0
    3.7365   12.9763   -0.9448 H   0  0  0  0  0  0  0  0  0  0  0  0
    1.0654   13.9317    0.1223 H   0  0  0  0  0  0  0  0  0  0  0  0
    2.6879   14.7136    0.2774 H   0  0  0  0  0  0  0  0  0  0  0  0
    3.9665   15.2602   -1.5088 H   0  0  0  0  0  0  0  0  0  0  0  0
    3.5379   14.2567   -2.9357 H   0  0  0  0  0  0  0  0  0  0  0  0
    3.1804   16.0170   -2.9357 H   0  0  0  0  0  0  0  0  0  0  0  0
  1  2  1  0
  2  3  1  0
  3  4  1  0
  4  5  1  0
  5  6  1  0
  6  7  1  0
  7  8  1  0
  7  9  1  0
  2 10  1  0
 10 11  1  0
 11 12  1  0
 12 13  1  0
 13 14  1  1
 13 15  1  0
 15 16  1  0
 16 17  1  0
 17 18  2  0
 18 19  1  0
 19 20  1  0
 20 21  1  0
 21 22  1  0
 22 23  1  0
 22 24  1  0
 24 25  1  0
 24 26  1  0
 19 27  1  0
 27 28  1  6
 27 29  1  0
 29 30  1  0
 30 31  1  0
 31 32  1  6
  7  5  1  0
 31 10  1  0
 31 13  1  0
 27 15  1  0
 24 18  1  0
  1 33  1  0
  1 34  1  0
  1 35  1  0
  2 36  1  1
  3 37  1  0
  3 38  1  0
  4 39  1  0
  4 40  1  0
  5 41  1  1
  8 42  1  0
  8 43  1  0
  8 44  1  0
  9 45  1  0
  9 46  1  0
  9 47  1  0
 10 48  1  1
 11 49  1  0
 11 50  1  0
 12 51  1  0
 12 52  1  0
 14 53  1  0
 14 54  1  0
 14 55  1  0
 15 56  1  6
 16 57  1  0
 16 58  1  0
 17 59  1  0
 19 60  1  1
 20 61  1  0
 20 62  1  0
 21 63  1  0
 21 64  1  0
 22 65  1  1
 23 66  1  0
 25 67  1  0
 25 68  1  0
 25 69  1  0
 26 70  1  0
 26 71  1  0
 26 72  1  0
 28 73  1  0
 28 74  1  0
 28 75  1  0
 29 76  1  0
 29 77  1  0
 30 78  1  0
 30 79  1  0
 32 80  1  0
 32 81  1  0
 32 82  1  0
M  END
>  <meeko>  (3) 
{"is_sidechain": [false], "intermolecular_energy": 2.731, "internal_energy": -0.839}

$$$$
EPH_relaxed_0001_pdb2pqr_Repair_138_r2_0001_out
     RDKit          3D

 82 86  0  0  0  0  0  0  0  0999 V2000
   -1.0960    8.8110   -1.9080 C   0  0  0  0  0  0  0  0  0  0  0  0
   -1.5230    9.1990   -0.4890 C   0  0  2  0  0  0  0  0  0  0  0  0
   -3.0530    9.3440   -0.3630 C   0  0  0  0  0  0  0  0  0  0  0  0
   -3.8390    8.4070   -1.2850 C   0  0  0  0  0  0  0  0  0  0  0  0
   -5.1950    8.0940   -0.7300 C   0  0  2  0  0  0  0  0  0  0  0  0
   -5.4350    6.7020   -0.4850 O   0  0  0  0  0  0  0  0  0  0  0  0
   -6.2530    7.3180   -1.4940 C   0  0  0  0  0  0  0  0  0  0  0  0
   -5.9990    6.8090   -2.8780 C   0  0  0  0  0  0  0  0  0  0  0  0
   -7.6860    7.4780   -1.0930 C   0  0  0  0  0  0  0  0  0  0  0  0
   -0.8410   10.4970   -0.0770 C   0  0  1  0  0  0  0  0  0  0  0  0
    0.1040   10.3150    1.1410 C   0  0  0  0  0  0  0  0  0  0  0  0
    1.3010   11.2770    0.9270 C   0  0  0  0  0  0  0  0  0  0  0  0
    0.8500   12.2110   -0.2210 C   0  0  1  0  0  0  0  0  0  0  0  0
   -0.0520   13.2840    0.4660 C   0  0  0  0  0  0  0  0  0  0  0  0
    1.9900   12.8690   -1.0640 C   0  0  2  0  0  0  0  0  0  0  0  0
    2.9240   13.8070   -0.2800 C   0  0  0  0  0  0  0  0  0  0  0  0
    2.5060   15.2400   -0.2450 C   0  0  0  0  0  0  0  0  0  0  0  0
    1.5880   15.8070   -1.0500 C   0  0  0  0  0  0  0  0  0  0  0  0
    0.9340   15.0070   -2.1840 C   0  0  1  0  0  0  0  0  0  0  0  0
    0.9380   15.8540   -3.4840 C   0  0  0  0  0  0  0  0  0  0  0  0
    0.2970   17.2250   -3.2910 C   0  0  0  0  0  0  0  0  0  0  0  0
    1.0110   18.0120   -2.1950 C   0  0  2  0  0  0  0  0  0  0  0  0
    2.3360   18.3210   -2.6390 O   0  0  0  0  0  0  0  0  0  0  0  0
    1.0780   17.2530   -0.8400 C   0  0  0  0  0  0  0  0  0  0  0  0
   -0.3370   17.1840   -0.2120 C   0  0  0  0  0  0  0  0  0  0  0  0
    1.9450   18.0940    0.1360 C   0  0  0  0  0  0  0  0  0  0  0  0
    1.4970   13.5380   -2.4110 C   0  0  1  0  0  0  0  0  0  0  0  0
    2.7300   13.5820   -3.3640 C   0  0  0  0  0  0  0  0  0  0  0  0
    0.4010   12.6750   -3.1420 C   0  0  0  0  0  0  0  0  0  0  0  0
   -0.6250   11.9530   -2.2480 C   0  0  0  0  0  0  0  0  0  0  0  0
    0.0740   11.1830   -1.1230 C   0  0  2  0  0  0  0  0  0  0  0  0
    0.9720   10.0810   -1.7830 C   0  0  0  0  0  0  0  0  0  0  0  0
   -0.2828    8.0720   -1.8570 H   0  0  0  0  0  0  0  0  0  0  0  0
   -1.9533    8.3765   -2.4430 H   0  0  0  0  0  0  0  0  0  0  0  0
   -0.7453    9.7059   -2.4430 H   0  0  0  0  0  0  0  0  0  0  0  0
   -1.2116    8.3866    0.1841 H   0  0  0  0  0  0  0  0  0  0  0  0
   -3.3378    9.1269    0.6771 H   0  0  0  0  0  0  0  0  0  0  0  0
   -3.3037   10.3727   -0.6612 H   0  0  0  0  0  0  0  0  0  0  0  0
   -3.9580    8.8895   -2.2664 H   0  0  0  0  0  0  0  0  0  0  0  0
   -3.2789    7.4645   -1.3749 H   0  0  0  0  0  0  0  0  0  0  0  0
   -5.2259    9.0567   -0.1986 H   0  0  0  0  0  0  0  0  0  0  0  0
   -5.5085    5.8260   -2.8229 H   0  0  0  0  0  0  0  0  0  0  0  0
   -6.9546    6.7124   -3.4143 H   0  0  0  0  0  0  0  0  0  0  0  0
   -5.3473    7.5145   -3.4143 H   0  0  0  0  0  0  0  0  0  0  0  0
   -7.7609    7.4864    0.0044 H   0  0  0  0  0  0  0  0  0  0  0  0
   -8.0755    8.4252   -1.4943 H   0  0  0  0  0  0  0  0  0  0  0  0
   -8.2748    6.6400   -1.4943 H   0  0  0  0  0  0  0  0  0  0  0  0
   -1.7281   11.1190    0.1128 H   0  0  0  0  0  0  0  0  0  0  0  0
   -0.4245   10.5693    2.0716 H   0  0  0  0  0  0  0  0  0  0  0  0
    0.4453    9.2725    1.2235 H   0  0  0  0  0  0  0  0  0  0  0  0
    1.5033   11.8547    1.8410 H   0  0  0  0  0  0  0  0  0  0  0  0
    2.2305   10.7398    0.6872 H   0  0  0  0  0  0  0  0  0  0  0  0
    0.0298   13.1867    1.5586 H   0  0  0  0  0  0  0  0  0  0  0  0
    0.2768   14.2886    0.1617 H   0  0  0  0  0  0  0  0  0  0  0  0
   -1.0982   13.1328    0.1617 H   0  0  0  0  0  0  0  0  0  0  0  0
    2.6054   12.0015   -1.3447 H   0  0  0  0  0  0  0  0  0  0  0  0
    2.9787   13.4435    0.7568 H   0  0  0  0  0  0  0  0  0  0  0  0
    3.8897   13.7845   -0.8063 H   0  0  0  0  0  0  0  0  0  0  0  0
    2.9891   15.8872    0.5018 H   0  0  0  0  0  0  0  0  0  0  0  0
   -0.1015   14.8177   -1.8647 H   0  0  0  0  0  0  0  0  0  0  0  0
    1.9791   15.9943   -3.8102 H   0  0  0  0  0  0  0  0  0  0  0  0
    0.3472   15.3123   -4.2373 H   0  0  0  0  0  0  0  0  0  0  0  0
    0.3573   17.7866   -4.2349 H   0  0  0  0  0  0  0  0  0  0  0  0
   -0.7526   17.0830   -2.9941 H   0  0  0  0  0  0  0  0  0  0  0  0
    0.4287   18.9273   -2.0131 H   0  0  0  0  0  0  0  0  0  0  0  0
    2.6830   17.5380   -3.0990 H   0  0  0  0  0  0  0  0  0  0  0  0
   -0.2520   17.1881    0.8847 H   0  0  0  0  0  0  0  0  0  0  0  0
   -0.9255   18.0545   -0.5375 H   0  0  0  0  0  0  0  0  0  0  0  0
   -0.8380   16.2604   -0.5375 H   0  0  0  0  0  0  0  0  0  0  0  0
    1.6819   17.8387    1.1731 H   0  0  0  0  0  0  0  0  0  0  0  0
    3.0090   17.8748   -0.0369 H   0  0  0  0  0  0  0  0  0  0  0  0
    1.7583   19.1642   -0.0369 H   0  0  0  0  0  0  0  0  0  0  0  0
    3.6536   13.6150   -2.7674 H   0  0  0  0  0  0  0  0  0  0  0  0
    2.7352   12.6835   -3.9985 H   0  0  0  0  0  0  0  0  0  0  0  0
    2.6712   14.4786   -3.9985 H   0  0  0  0  0  0  0  0  0  0  0  0
   -0.1560   13.3444   -3.8140 H   0  0  0  0  0  0  0  0  0  0  0  0
    0.9572   11.8721   -3.6480 H   0  0  0  0  0  0  0  0  0  0  0  0
   -1.3044   12.6971   -1.8067 H   0  0  0  0  0  0  0  0  0  0  0  0
   -1.1870   11.2375   -2.8663 H   0  0  0  0  0  0  0  0  0  0  0  0
    1.4580    9.4846   -0.9968 H   0  0  0  0  0  0  0  0  0  0  0  0
    0.3479    9.4251   -2.4077 H   0  0  0  0  0  0  0  0  0  0  0  0
    1.7404   10.5598   -2.4077 H   0  0  0  0  0  0  0  0  0  0  0  0
  1  2  1  0
  2  3  1  0
  3  4  1  0
  4  5  1  0
  5  6  1  0
  6  7  1  0
  7  8  1  0
  7  9  1  0
  2 10  1  0
 10 11  1  0
 11 12  1  0
 12 13  1  0
 13 14  1  1
 13 15  1  0
 15 16  1  0
 16 17  1  0
 17 18  2  0
 18 19  1  0
 19 20  1  0
 20 21  1  0
 21 22  1  0
 22 23  1  0
 22 24  1  0
 24 25  1  0
 24 26  1  0
 19 27  1  0
 27 28  1  6
 27 29  1  0
 29 30  1  0
 30 31  1  0
 31 32  1  6
  7  5  1  0
 31 10  1  0
 31 13  1  0
 27 15  1  0
 24 18  1  0
  1 33  1  0
  1 34  1  0
  1 35  1  0
  2 36  1  1
  3 37  1  0
  3 38  1  0
  4 39  1  0
  4 40  1  0
  5 41  1  1
  8 42  1  0
  8 43  1  0
  8 44  1  0
  9 45  1  0
  9 46  1  0
  9 47  1  0
 10 48  1  1
 11 49  1  0
 11 50  1  0
 12 51  1  0
 12 52  1  0
 14 53  1  0
 14 54  1  0
 14 55  1  0
 15 56  1  6
 16 57  1  0
 16 58  1  0
 17 59  1  0
 19 60  1  1
 20 61  1  0
 20 62  1  0
 21 63  1  0
 21 64  1  0
 22 65  1  1
 23 66  1  0
 25 67  1  0
 25 68  1  0
 25 69  1  0
 26 70  1  0
 26 71  1  0
 26 72  1  0
 28 73  1  0
 28 74  1  0
 28 75  1  0
 29 76  1  0
 29 77  1  0
 30 78  1  0
 30 79  1  0
 32 80  1  0
 32 81  1  0
 32 82  1  0
M  END
>  <meeko>  (4) 
{"is_sidechain": [false], "intermolecular_energy": 2.731, "internal_energy": -0.839}

$$$$
EPH_relaxed_0001_pdb2pqr_Repair_138_r2_0001_out
     RDKit          3D

 82 86  0  0  0  0  0  0  0  0999 V2000
   -0.6490    7.8300   -0.6050 C   0  0  0  0  0  0  0  0  0  0  0  0
   -1.0440    9.2030   -0.0540 C   0  0  2  0  0  0  0  0  0  0  0  0
   -2.3090    9.7610   -0.7370 C   0  0  0  0  0  0  0  0  0  0  0  0
   -3.6150    9.3050   -0.0810 C   0  0  0  0  0  0  0  0  0  0  0  0
   -4.0260    7.9430   -0.5530 C   0  0  2  0  0  0  0  0  0  0  0  0
   -4.1080    7.8030   -1.9780 O   0  0  0  0  0  0  0  0  0  0  0  0
   -5.3420    7.6630   -1.2550 C   0  0  0  0  0  0  0  0  0  0  0  0
   -6.3310    8.7530   -1.5220 C   0  0  0  0  0  0  0  0  0  0  0  0
   -5.8770    6.2650   -1.2400 C   0  0  0  0  0  0  0  0  0  0  0  0
    0.1120   10.1820   -0.2190 C   0  0  1  0  0  0  0  0  0  0  0  0
    1.4910    9.4720   -0.2890 C   0  0  0  0  0  0  0  0  0  0  0  0
    2.3670   10.2920   -1.2710 C   0  0  0  0  0  0  0  0  0  0  0  0
    1.5910   11.6150   -1.4740 C   0  0  1  0  0  0  0  0  0  0  0  0
    1.9500   12.4850   -0.2290 C   0  0  0  0  0  0  0  0  0  0  0  0
    1.8660   12.3780   -2.8100 C   0  0  2  0  0  0  0  0  0  0  0  0
    3.3140   12.8620   -3.0000 C   0  0  0  0  0  0  0  0  0  0  0  0
    3.6020   14.2330   -2.4850 C   0  0  0  0  0  0  0  0  0  0  0  0
    2.6780   15.1530   -2.1530 C   0  0  0  0  0  0  0  0  0  0  0  0
    1.1840   14.8860   -2.3760 C   0  0  1  0  0  0  0  0  0  0  0  0
    0.5300   16.1240   -3.0440 C   0  0  0  0  0  0  0  0  0  0  0  0
    0.7820   17.4110   -2.2630 C   0  0  0  0  0  0  0  0  0  0  0  0
    2.2780   17.6730   -2.1120 C   0  0  2  0  0  0  0  0  0  0  0  0
    2.8310   17.9500   -3.4020 O   0  0  0  0  0  0  0  0  0  0  0  0
    3.0450   16.4880   -1.4590 C   0  0  0  0  0  0  0  0  0  0  0  0
    2.6600   16.3810    0.0370 C   0  0  0  0  0  0  0  0  0  0  0  0
    4.5610   16.8230   -1.4950 C   0  0  0  0  0  0  0  0  0  0  0  0
    0.8270   13.5300   -3.1240 C   0  0  1  0  0  0  0  0  0  0  0  0
    0.8580   13.7490   -4.6680 C   0  0  0  0  0  0  0  0  0  0  0  0
   -0.6500   13.1180   -2.7650 C   0  0  0  0  0  0  0  0  0  0  0  0
   -0.8430   12.2630   -1.4970 C   0  0  0  0  0  0  0  0  0  0  0  0
    0.1170   11.0700   -1.4890 C   0  0  2  0  0  0  0  0  0  0  0  0
   -0.2340   10.1640   -2.7180 C   0  0  0  0  0  0  0  0  0  0  0  0
   -0.4512    7.1426    0.2307 H   0  0  0  0  0  0  0  0  0  0  0  0
   -1.4691    7.4322   -1.2208 H   0  0  0  0  0  0  0  0  0  0  0  0
    0.2571    7.9289   -1.2208 H   0  0  0  0  0  0  0  0  0  0  0  0
   -1.2741    9.0768    1.0142 H   0  0  0  0  0  0  0  0  0  0  0  0
   -2.2673   10.8596   -0.7006 H   0  0  0  0  0  0  0  0  0  0  0  0
   -2.3149    9.3749   -1.7670 H   0  0  0  0  0  0  0  0  0  0  0  0
   -3.4754    9.2773    1.0098 H   0  0  0  0  0  0  0  0  0  0  0  0
   -4.4056   10.0175   -0.3591 H   0  0  0  0  0  0  0  0  0  0  0  0
   -3.5346    7.4694    0.3097 H   0  0  0  0  0  0  0  0  0  0  0  0
   -6.6978    9.1573   -0.5670 H   0  0  0  0  0  0  0  0  0  0  0  0
   -5.8461    9.5552   -2.0977 H   0  0  0  0  0  0  0  0  0  0  0  0
   -7.1764    8.3481   -2.0977 H   0  0  0  0  0  0  0  0  0  0  0  0
   -6.0043    5.9323   -0.1993 H   0  0  0  0  0  0  0  0  0  0  0  0
   -6.8487    6.2387   -1.7548 H   0  0  0  0  0  0  0  0  0  0  0  0
   -5.1711    5.5967   -1.7548 H   0  0  0  0  0  0  0  0  0  0  0  0
   -0.0448   10.8042    0.6744 H   0  0  0  0  0  0  0  0  0  0  0  0
    1.9571    9.4507    0.7071 H   0  0  0  0  0  0  0  0  0  0  0  0
    1.3828    8.4319   -0.6304 H   0  0  0  0  0  0  0  0  0  0  0  0
    3.3590   10.4862   -0.8372 H   0  0  0  0  0  0  0  0  0  0  0  0
    2.5410    9.7607   -2.2183 H   0  0  0  0  0  0  0  0  0  0  0  0
    1.7188   11.9246    0.6889 H   0  0  0  0  0  0  0  0  0  0  0  0
    3.0224   12.7292   -0.2492 H   0  0  0  0  0  0  0  0  0  0  0  0
    1.3619   13.4144   -0.2492 H   0  0  0  0  0  0  0  0  0  0  0  0
    1.7119   11.5929   -3.5649 H   0  0  0  0  0  0  0  0  0  0  0  0
    3.9788   12.1570   -2.4794 H   0  0  0  0  0  0  0  0  0  0  0  0
    3.4799   12.9046   -4.0866 H   0  0  0  0  0  0  0  0  0  0  0  0
    4.6587   14.5150   -2.3669 H   0  0  0  0  0  0  0  0  0  0  0  0
    0.7509   14.7289   -1.3771 H   0  0  0  0  0  0  0  0  0  0  0  0
    0.9446   16.2388   -4.0564 H   0  0  0  0  0  0  0  0  0  0  0  0
   -0.5567   15.9554   -3.0687 H   0  0  0  0  0  0  0  0  0  0  0  0
    0.3212   18.2537   -2.7993 H   0  0  0  0  0  0  0  0  0  0  0  0
    0.3410   17.3057   -1.2608 H   0  0  0  0  0  0  0  0  0  0  0  0
    2.3948   18.5334   -1.4367 H   0  0  0  0  0  0  0  0  0  0  0  0
    3.7100   17.5370   -3.4410 H   0  0  0  0  0  0  0  0  0  0  0  0
    3.5342   16.6240    0.6589 H   0  0  0  0  0  0  0  0  0  0  0  0
    1.8456   17.0869    0.2574 H   0  0  0  0  0  0  0  0  0  0  0  0
    2.3266   15.3562    0.2574 H   0  0  0  0  0  0  0  0  0  0  0  0
    4.9424   16.9073   -0.4667 H   0  0  0  0  0  0  0  0  0  0  0  0
    5.1010   16.0225   -2.0219 H   0  0  0  0  0  0  0  0  0  0  0  0
    4.7134   17.7765   -2.0219 H   0  0  0  0  0  0  0  0  0  0  0  0
    1.0092   14.8170   -4.8839 H   0  0  0  0  0  0  0  0  0  0  0  0
    1.6826   13.1664   -5.1045 H   0  0  0  0  0  0  0  0  0  0  0  0
   -0.0959   13.4181   -5.1045 H   0  0  0  0  0  0  0  0  0  0  0  0
   -1.2314   14.0427   -2.6348 H   0  0  0  0  0  0  0  0  0  0  0  0
   -0.9815   12.4791   -3.5968 H   0  0  0  0  0  0  0  0  0  0  0  0
   -0.6509   12.8854   -0.6106 H   0  0  0  0  0  0  0  0  0  0  0  0
   -1.8751   11.8828   -1.4841 H   0  0  0  0  0  0  0  0  0  0  0  0
   -0.6100    9.1933   -2.3625 H   0  0  0  0  0  0  0  0  0  0  0  0
   -1.0067   10.6557   -3.3272 H   0  0  0  0  0  0  0  0  0  0  0  0
    0.6683   10.0068   -3.3272 H   0  0  0  0  0  0  0  0  0  0  0  0
  1  2  1  0
  2  3  1  0
  3  4  1  0
  4  5  1  0
  5  6  1  0
  6  7  1  0
  7  8  1  0
  7  9  1  0
  2 10  1  0
 10 11  1  0
 11 12  1  0
 12 13  1  0
 13 14  1  1
 13 15  1  0
 15 16  1  0
 16 17  1  0
 17 18  2  0
 18 19  1  0
 19 20  1  0
 20 21  1  0
 21 22  1  0
 22 23  1  0
 22 24  1  0
 24 25  1  0
 24 26  1  0
 19 27  1  0
 27 28  1  6
 27 29  1  0
 29 30  1  0
 30 31  1  0
 31 32  1  6
  7  5  1  0
 31 10  1  0
 31 13  1  0
 27 15  1  0
 24 18  1  0
  1 33  1  0
  1 34  1  0
  1 35  1  0
  2 36  1  1
  3 37  1  0
  3 38  1  0
  4 39  1  0
  4 40  1  0
  5 41  1  1
  8 42  1  0
  8 43  1  0
  8 44  1  0
  9 45  1  0
  9 46  1  0
  9 47  1  0
 10 48  1  1
 11 49  1  0
 11 50  1  0
 12 51  1  0
 12 52  1  0
 14 53  1  0
 14 54  1  0
 14 55  1  0
 15 56  1  6
 16 57  1  0
 16 58  1  0
 17 59  1  0
 19 60  1  1
 20 61  1  0
 20 62  1  0
 21 63  1  0
 21 64  1  0
 22 65  1  1
 23 66  1  0
 25 67  1  0
 25 68  1  0
 25 69  1  0
 26 70  1  0
 26 71  1  0
 26 72  1  0
 28 73  1  0
 28 74  1  0
 28 75  1  0
 29 76  1  0
 29 77  1  0
 30 78  1  0
 30 79  1  0
 32 80  1  0
 32 81  1  0
 32 82  1  0
M  END
>  <meeko>  (5) 
{"is_sidechain": [false], "intermolecular_energy": 2.731, "internal_energy": -0.839}

$$$$
EPH_relaxed_0001_pdb2pqr_Repair_138_r2_0001_out
     RDKit          3D

 82 86  0  0  0  0  0  0  0  0999 V2000
    3.6620   17.9520   -1.4730 C   0  0  0  0  0  0  0  0  0  0  0  0
    2.6180   17.4760   -2.4880 C   0  0  2  0  0  0  0  0  0  0  0  0
    1.2010   17.9720   -2.1390 C   0  0  0  0  0  0  0  0  0  0  0  0
    1.1450   18.8370   -0.8770 C   0  0  0  0  0  0  0  0  0  0  0  0
   -0.1030   19.6670   -0.8280 C   0  0  2  0  0  0  0  0  0  0  0  0
   -0.4210   20.1940    0.4660 O   0  0  0  0  0  0  0  0  0  0  0  0
   -1.3560   19.2510   -0.0810 C   0  0  0  0  0  0  0  0  0  0  0  0
   -1.4240   17.9570    0.6690 C   0  0  0  0  0  0  0  0  0  0  0  0
   -2.6630   19.8600   -0.4810 C   0  0  0  0  0  0  0  0  0  0  0  0
    2.6310   15.9540   -2.5710 C   0  0  1  0  0  0  0  0  0  0  0  0
    4.0600   15.3780   -2.7590 C   0  0  0  0  0  0  0  0  0  0  0  0
    4.1070   14.0360   -1.9830 C   0  0  0  0  0  0  0  0  0  0  0  0
    2.6280   13.7220   -1.6580 C   0  0  1  0  0  0  0  0  0  0  0  0
    2.0550   13.0910   -2.9660 C   0  0  0  0  0  0  0  0  0  0  0  0
    2.3730   12.8070   -0.4160 C   0  0  2  0  0  0  0  0  0  0  0  0
    2.9530   11.3860   -0.5230 C   0  0  0  0  0  0  0  0  0  0  0  0
    2.0350   10.3650   -1.1110 C   0  0  0  0  0  0  0  0  0  0  0  0
    0.7070   10.5090   -1.2730 C   0  0  0  0  0  0  0  0  0  0  0  0
   -0.0190   11.7580   -0.7570 C   0  0  1  0  0  0  0  0  0  0  0  0
   -1.3040   11.3330    0.0020 C   0  0  0  0  0  0  0  0  0  0  0  0
   -2.2100   10.4370   -0.8380 C   0  0  0  0  0  0  0  0  0  0  0  0
   -1.4690    9.1780   -1.2840 C   0  0  2  0  0  0  0  0  0  0  0  0
   -1.1830    8.3800   -0.1320 O   0  0  0  0  0  0  0  0  0  0  0  0
   -0.1520    9.4820   -2.0510 C   0  0  0  0  0  0  0  0  0  0  0  0
   -0.4850   10.0790   -3.4410 C   0  0  0  0  0  0  0  0  0  0  0  0
    0.5660    8.1320   -2.3190 C   0  0  0  0  0  0  0  0  0  0  0  0
    0.8680   12.7830    0.0730 C   0  0  1  0  0  0  0  0  0  0  0  0
    0.8950   12.3680    1.5760 C   0  0  0  0  0  0  0  0  0  0  0  0
    0.1980   14.2060    0.0170 C   0  0  0  0  0  0  0  0  0  0  0  0
    0.5820   15.1090   -1.1710 C   0  0  0  0  0  0  0  0  0  0  0  0
    2.1020   15.1700   -1.3440 C   0  0  2  0  0  0  0  0  0  0  0  0
    2.7050   15.8210   -0.0520 C   0  0  0  0  0  0  0  0  0  0  0  0
    3.2867   17.7809   -0.4533 H   0  0  0  0  0  0  0  0  0  0  0  0
    4.5971   17.3913   -1.6184 H   0  0  0  0  0  0  0  0  0  0  0  0
    3.8519   19.0257   -1.6184 H   0  0  0  0  0  0  0  0  0  0  0  0
    2.8864   17.9044   -3.4649 H   0  0  0  0  0  0  0  0  0  0  0  0
    0.8230   18.5660   -2.9842 H   0  0  0  0  0  0  0  0  0  0  0  0
    0.5870   17.0802   -1.9449 H   0  0  0  0  0  0  0  0  0  0  0  0
    1.1720   18.1815    0.0059 H   0  0  0  0  0  0  0  0  0  0  0  0
    2.0090   19.5176   -0.8894 H   0  0  0  0  0  0  0  0  0  0  0  0
    0.0601   20.0149   -1.8587 H   0  0  0  0  0  0  0  0  0  0  0  0
   -1.4134   18.1589    1.7503 H   0  0  0  0  0  0  0  0  0  0  0  0
   -2.3512   17.4278    0.4039 H   0  0  0  0  0  0  0  0  0  0  0  0
   -0.5574   17.3336    0.4039 H   0  0  0  0  0  0  0  0  0  0  0  0
   -3.2345   20.1263    0.4203 H   0  0  0  0  0  0  0  0  0  0  0  0
   -2.4783   20.7648   -1.0787 H   0  0  0  0  0  0  0  0  0  0  0  0
   -3.2370   19.1366   -1.0787 H   0  0  0  0  0  0  0  0  0  0  0  0
    1.9566   15.8106   -3.4281 H   0  0  0  0  0  0  0  0  0  0  0  0
    4.2615   15.2056   -3.8265 H   0  0  0  0  0  0  0  0  0  0  0  0
    4.8207   16.0783   -2.3835 H   0  0  0  0  0  0  0  0  0  0  0  0
    4.5448   13.2422   -2.6060 H   0  0  0  0  0  0  0  0  0  0  0  0
    4.7290   14.0988   -1.0779 H   0  0  0  0  0  0  0  0  0  0  0  0
    1.3363   12.2996   -2.7070 H   0  0  0  0  0  0  0  0  0  0  0  0
    1.5476   13.8682   -3.5563 H   0  0  0  0  0  0  0  0  0  0  0  0
    2.8774   12.6606   -3.5563 H   0  0  0  0  0  0  0  0  0  0  0  0
    2.9556   13.3084    0.3709 H   0  0  0  0  0  0  0  0  0  0  0  0
    3.8552   11.4335   -1.1505 H   0  0  0  0  0  0  0  0  0  0  0  0
    3.1507   11.0594    0.5086 H   0  0  0  0  0  0  0  0  0  0  0  0
    2.4823    9.4152   -1.4393 H   0  0  0  0  0  0  0  0  0  0  0  0
   -0.2875   12.3435   -1.6487 H   0  0  0  0  0  0  0  0  0  0  0  0
   -1.0123   10.7866    0.9110 H   0  0  0  0  0  0  0  0  0  0  0  0
   -1.8676   12.2466    0.2424 H   0  0  0  0  0  0  0  0  0  0  0  0
   -3.0853   10.1465   -0.2385 H   0  0  0  0  0  0  0  0  0  0  0  0
   -2.5250   10.9949   -1.7322 H   0  0  0  0  0  0  0  0  0  0  0  0
   -2.1231    8.6407   -1.9865 H   0  0  0  0  0  0  0  0  0  0  0  0
   -0.4540    8.8070    0.3490 H   0  0  0  0  0  0  0  0  0  0  0  0
   -1.0172   11.0331   -3.3123 H   0  0  0  0  0  0  0  0  0  0  0  0
    0.4472   10.2515   -3.9989 H   0  0  0  0  0  0  0  0  0  0  0  0
   -1.1215    9.3764   -3.9989 H   0  0  0  0  0  0  0  0  0  0  0  0
    0.8197    7.6551   -1.3608 H   0  0  0  0  0  0  0  0  0  0  0  0
   -0.0994    7.4704   -2.8931 H   0  0  0  0  0  0  0  0  0  0  0  0
    1.4865    8.3139   -2.8931 H   0  0  0  0  0  0  0  0  0  0  0  0
    0.8365   13.2679    2.2060 H   0  0  0  0  0  0  0  0  0  0  0  0
    0.0375   11.7134    1.7911 H   0  0  0  0  0  0  0  0  0  0  0  0
    1.8300   11.8300    1.7911 H   0  0  0  0  0  0  0  0  0  0  0  0
   -0.8917   14.0596   -0.0150 H   0  0  0  0  0  0  0  0  0  0  0  0
    0.5666   14.7328    0.9096 H   0  0  0  0  0  0  0  0  0  0  0  0
    0.1311   14.7059   -2.0898 H   0  0  0  0  0  0  0  0  0  0  0  0
    0.2104   16.1253   -0.9736 H   0  0  0  0  0  0  0  0  0  0  0  0
    2.2651   15.3461    0.8374 H   0  0  0  0  0  0  0  0  0  0  0  0
    3.7954   15.6766   -0.0433 H   0  0  0  0  0  0  0  0  0  0  0  0
    2.4776   16.8972   -0.0433 H   0  0  0  0  0  0  0  0  0  0  0  0
  1  2  1  0
  2  3  1  0
  3  4  1  0
  4  5  1  0
  5  6  1  0
  6  7  1  0
  7  8  1  0
  7  9  1  0
  2 10  1  0
 10 11  1  0
 11 12  1  0
 12 13  1  0
 13 14  1  6
 13 15  1  0
 15 16  1  0
 16 17  1  0
 17 18  2  0
 18 19  1  0
 19 20  1  0
 20 21  1  0
 21 22  1  0
 22 23  1  0
 22 24  1  0
 24 25  1  0
 24 26  1  0
 19 27  1  0
 27 28  1  1
 27 29  1  0
 29 30  1  0
 30 31  1  0
 31 32  1  1
  7  5  1  0
 31 10  1  0
 31 13  1  0
 27 15  1  0
 24 18  1  0
  1 33  1  0
  1 34  1  0
  1 35  1  0
  2 36  1  6
  3 37  1  0
  3 38  1  0
  4 39  1  0
  4 40  1  0
  5 41  1  6
  8 42  1  0
  8 43  1  0
  8 44  1  0
  9 45  1  0
  9 46  1  0
  9 47  1  0
 10 48  1  6
 11 49  1  0
 11 50  1  0
 12 51  1  0
 12 52  1  0
 14 53  1  0
 14 54  1  0
 14 55  1  0
 15 56  1  1
 16 57  1  0
 16 58  1  0
 17 59  1  0
 19 60  1  6
 20 61  1  0
 20 62  1  0
 21 63  1  0
 21 64  1  0
 22 65  1  6
 23 66  1  0
 25 67  1  0
 25 68  1  0
 25 69  1  0
 26 70  1  0
 26 71  1  0
 26 72  1  0
 28 73  1  0
 28 74  1  0
 28 75  1  0
 29 76  1  0
 29 77  1  0
 30 78  1  0
 30 79  1  0
 32 80  1  0
 32 81  1  0
 32 82  1  0
M  END
>  <meeko>  (6) 
{"is_sidechain": [false], "intermolecular_energy": 2.731, "internal_energy": -0.839}

$$$$
EPH_relaxed_0001_pdb2pqr_Repair_138_r2_0001_out
     RDKit          3D

 82 86  0  0  0  0  0  0  0  0999 V2000
   -2.5770    7.6110   -3.0650 C   0  0  0  0  0  0  0  0  0  0  0  0
   -2.8740    7.8910   -1.5890 C   0  0  2  0  0  0  0  0  0  0  0  0
   -4.3850    7.8620   -1.2840 C   0  0  0  0  0  0  0  0  0  0  0  0
   -5.1110    6.6570   -1.8880 C   0  0  0  0  0  0  0  0  0  0  0  0
   -6.3150    7.0730   -2.6780 C   0  0  2  0  0  0  0  0  0  0  0  0
   -6.8810    8.3300   -2.2870 O   0  0  0  0  0  0  0  0  0  0  0  0
   -7.7090    7.1730   -2.0870 C   0  0  0  0  0  0  0  0  0  0  0  0
   -7.9720    6.8540   -0.6490 C   0  0  0  0  0  0  0  0  0  0  0  0
   -8.8840    7.1050   -3.0120 C   0  0  0  0  0  0  0  0  0  0  0  0
   -2.2880    9.2400   -1.1880 C   0  0  1  0  0  0  0  0  0  0  0  0
   -2.7980    9.7270    0.1940 C   0  0  0  0  0  0  0  0  0  0  0  0
   -1.6230   10.4840    0.8640 C   0  0  0  0  0  0  0  0  0  0  0  0
   -0.5970   10.6960   -0.2740 C   0  0  1  0  0  0  0  0  0  0  0  0
   -1.1180   11.9420   -1.0560 C   0  0  0  0  0  0  0  0  0  0  0  0
    0.8940   10.8720    0.1640 C   0  0  2  0  0  0  0  0  0  0  0  0
    1.1760   12.1050    1.0400 C   0  0  0  0  0  0  0  0  0  0  0  0
    1.5410   13.3460    0.2950 C   0  0  0  0  0  0  0  0  0  0  0  0
    1.9170   13.4010   -0.9960 C   0  0  0  0  0  0  0  0  0  0  0  0
    2.0980   12.1190   -1.8190 C   0  0  1  0  0  0  0  0  0  0  0  0
    3.4330   12.1940   -2.6070 C   0  0  0  0  0  0  0  0  0  0  0  0
    3.5400   13.4540   -3.4590 C   0  0  0  0  0  0  0  0  0  0  0  0
    3.4130   14.7080   -2.5970 C   0  0  2  0  0  0  0  0  0  0  0  0
    4.5510   14.7900   -1.7330 O   0  0  0  0  0  0  0  0  0  0  0  0
    2.1100   14.7400   -1.7500 C   0  0  0  0  0  0  0  0  0  0  0  0
    0.8900   14.9550   -2.6800 C   0  0  0  0  0  0  0  0  0  0  0  0
    2.1740   15.9840   -0.8240 C   0  0  0  0  0  0  0  0  0  0  0  0
    1.9350   10.7550   -1.0220 C   0  0  1  0  0  0  0  0  0  0  0  0
    3.2970   10.3480   -0.3790 C   0  0  0  0  0  0  0  0  0  0  0  0
    1.5620    9.6080   -2.0350 C   0  0  0  0  0  0  0  0  0  0  0  0
    0.0650    9.4060   -2.3350 C   0  0  0  0  0  0  0  0  0  0  0  0
   -0.7490    9.3310   -1.0390 C   0  0  2  0  0  0  0  0  0  0  0  0
   -0.2610    8.0740   -0.2400 C   0  0  0  0  0  0  0  0  0  0  0  0
   -1.7786    6.8583   -3.1420 H   0  0  0  0  0  0  0  0  0  0  0  0
   -3.4857    7.2333   -3.5566 H   0  0  0  0  0  0  0  0  0  0  0  0
   -2.2534    8.5403   -3.5566 H   0  0  0  0  0  0  0  0  0  0  0  0
   -2.4033    7.0904   -0.9996 H   0  0  0  0  0  0  0  0  0  0  0  0
   -4.5187    7.8368   -0.1924 H   0  0  0  0  0  0  0  0  0  0  0  0
   -4.8225    8.7627   -1.7393 H   0  0  0  0  0  0  0  0  0  0  0  0
   -4.4178    6.1192   -2.5515 H   0  0  0  0  0  0  0  0  0  0  0  0
   -5.4485    6.0118   -1.0635 H   0  0  0  0  0  0  0  0  0  0  0  0
   -5.9292    6.5699   -3.5769 H   0  0  0  0  0  0  0  0  0  0  0  0
   -7.4024    7.5449   -0.0100 H   0  0  0  0  0  0  0  0  0  0  0  0
   -9.0465    6.9626   -0.4399 H   0  0  0  0  0  0  0  0  0  0  0  0
   -7.6605    5.8200   -0.4399 H   0  0  0  0  0  0  0  0  0  0  0  0
   -9.8116    7.0513   -2.4232 H   0  0  0  0  0  0  0  0  0  0  0  0
   -8.9038    8.0035   -3.6463 H   0  0  0  0  0  0  0  0  0  0  0  0
   -8.8000    6.2102   -3.6463 H   0  0  0  0  0  0  0  0  0  0  0  0
   -2.6198    9.8458   -2.0441 H   0  0  0  0  0  0  0  0  0  0  0  0
   -3.6577   10.4009    0.0643 H   0  0  0  0  0  0  0  0  0  0  0  0
   -3.1265    8.8800    0.8142 H   0  0  0  0  0  0  0  0  0  0  0  0
   -1.9622   11.4500    1.2661 H   0  0  0  0  0  0  0  0  0  0  0  0
   -1.1971    9.9273    1.7118 H   0  0  0  0  0  0  0  0  0  0  0  0
   -1.4409   12.7142   -0.3422 H   0  0  0  0  0  0  0  0  0  0  0  0
   -0.3115   12.3415   -1.6885 H   0  0  0  0  0  0  0  0  0  0  0  0
   -1.9688   11.6485   -1.6885 H   0  0  0  0  0  0  0  0  0  0  0  0
    1.0530   10.0006    0.8162 H   0  0  0  0  0  0  0  0  0  0  0  0
    0.2723   12.3164    1.6305 H   0  0  0  0  0  0  0  0  0  0  0  0
    2.0527   11.8489    1.6530 H   0  0  0  0  0  0  0  0  0  0  0  0
    1.4991   14.2959    0.8481 H   0  0  0  0  0  0  0  0  0  0  0  0
    1.2518   12.0858   -2.5210 H   0  0  0  0  0  0  0  0  0  0  0  0
    4.2669   12.1817   -1.8897 H   0  0  0  0  0  0  0  0  0  0  0  0
    3.4690   11.3287   -3.2852 H   0  0  0  0  0  0  0  0  0  0  0  0
    4.5158   13.4635   -3.9667 H   0  0  0  0  0  0  0  0  0  0  0  0
    2.7231   13.4501   -4.1957 H   0  0  0  0  0  0  0  0  0  0  0  0
    3.3664   15.5722   -3.2760 H   0  0  0  0  0  0  0  0  0  0  0  0
    4.6500   13.9290   -1.2940 H   0  0  0  0  0  0  0  0  0  0  0  0
   -0.0120   15.1140   -2.0708 H   0  0  0  0  0  0  0  0  0  0  0  0
    1.0637   15.8364   -3.3148 H   0  0  0  0  0  0  0  0  0  0  0  0
    0.7519   14.0673   -3.3148 H   0  0  0  0  0  0  0  0  0  0  0  0
    2.1573   15.6600    0.2271 H   0  0  0  0  0  0  0  0  0  0  0  0
    3.1020   16.5407   -1.0214 H   0  0  0  0  0  0  0  0  0  0  0  0
    1.3081   16.6330   -1.0214 H   0  0  0  0  0  0  0  0  0  0  0  0
    3.2076   10.3747    0.7170 H   0  0  0  0  0  0  0  0  0  0  0  0
    3.5647    9.3306   -0.7003 H   0  0  0  0  0  0  0  0  0  0  0  0
    4.0790   11.0517   -0.7003 H   0  0  0  0  0  0  0  0  0  0  0  0
    2.0655    9.8288   -2.9878 H   0  0  0  0  0  0  0  0  0  0  0  0
    1.8860    8.6768   -1.5473 H   0  0  0  0  0  0  0  0  0  0  0  0
   -0.2979   10.2503   -2.9395 H   0  0  0  0  0  0  0  0  0  0  0  0
   -0.0585    8.4596   -2.8819 H   0  0  0  0  0  0  0  0  0  0  0  0
   -0.3382    8.2728    0.8391 H   0  0  0  0  0  0  0  0  0  0  0  0
   -0.8884    7.2085   -0.4992 H   0  0  0  0  0  0  0  0  0  0  0  0
    0.7861    7.8586   -0.4992 H   0  0  0  0  0  0  0  0  0  0  0  0
  1  2  1  0
  2  3  1  0
  3  4  1  0
  4  5  1  0
  5  6  1  0
  6  7  1  0
  7  8  1  0
  7  9  1  0
  2 10  1  0
 10 11  1  0
 11 12  1  0
 12 13  1  0
 13 14  1  6
 13 15  1  0
 15 16  1  0
 16 17  1  0
 17 18  2  0
 18 19  1  0
 19 20  1  0
 20 21  1  0
 21 22  1  0
 22 23  1  0
 22 24  1  0
 24 25  1  0
 24 26  1  0
 19 27  1  0
 27 28  1  1
 27 29  1  0
 29 30  1  0
 30 31  1  0
 31 32  1  1
  7  5  1  0
 31 10  1  0
 31 13  1  0
 27 15  1  0
 24 18  1  0
  1 33  1  0
  1 34  1  0
  1 35  1  0
  2 36  1  1
  3 37  1  0
  3 38  1  0
  4 39  1  0
  4 40  1  0
  5 41  1  6
  8 42  1  0
  8 43  1  0
  8 44  1  0
  9 45  1  0
  9 46  1  0
  9 47  1  0
 10 48  1  6
 11 49  1  0
 11 50  1  0
 12 51  1  0
 12 52  1  0
 14 53  1  0
 14 54  1  0
 14 55  1  0
 15 56  1  1
 16 57  1  0
 16 58  1  0
 17 59  1  0
 19 60  1  6
 20 61  1  0
 20 62  1  0
 21 63  1  0
 21 64  1  0
 22 65  1  6
 23 66  1  0
 25 67  1  0
 25 68  1  0
 25 69  1  0
 26 70  1  0
 26 71  1  0
 26 72  1  0
 28 73  1  0
 28 74  1  0
 28 75  1  0
 29 76  1  0
 29 77  1  0
 30 78  1  0
 30 79  1  0
 32 80  1  0
 32 81  1  0
 32 82  1  0
M  END
>  <meeko>  (7) 
{"is_sidechain": [false], "intermolecular_energy": 2.731, "internal_energy": -0.839}

$$$$
EPH_relaxed_0001_pdb2pqr_Repair_138_r2_0001_out
     RDKit          3D

 82 86  0  0  0  0  0  0  0  0999 V2000
    4.3500   17.2920    0.4930 C   0  0  0  0  0  0  0  0  0  0  0  0
    3.9670   16.5580   -0.7960 C   0  0  2  0  0  0  0  0  0  0  0  0
    3.7210   17.5310   -1.9670 C   0  0  0  0  0  0  0  0  0  0  0  0
    2.9740   18.8050   -1.5630 C   0  0  0  0  0  0  0  0  0  0  0  0
    1.6060   18.8620   -2.1730 C   0  0  2  0  0  0  0  0  0  0  0  0
    1.1730   20.1760   -2.5480 O   0  0  0  0  0  0  0  0  0  0  0  0
    0.4200   19.5340   -1.5060 C   0  0  0  0  0  0  0  0  0  0  0  0
    0.5480   20.1940   -0.1690 C   0  0  0  0  0  0  0  0  0  0  0  0
   -0.9590   19.1280   -1.9210 C   0  0  0  0  0  0  0  0  0  0  0  0
    2.7270   15.7050   -0.5590 C   0  0  1  0  0  0  0  0  0  0  0  0
    1.4540   16.5570   -0.3070 C   0  0  0  0  0  0  0  0  0  0  0  0
    0.2680   15.7860   -0.9420 C   0  0  0  0  0  0  0  0  0  0  0  0
    0.8320   14.3780   -1.2410 C   0  0  1  0  0  0  0  0  0  0  0  0
    0.7590   13.6190    0.1220 C   0  0  0  0  0  0  0  0  0  0  0  0
    0.1270   13.5790   -2.3850 C   0  0  2  0  0  0  0  0  0  0  0  0
   -1.3540   13.2480   -2.1320 C   0  0  0  0  0  0  0  0  0  0  0  0
   -1.6090   11.9460   -1.4480 C   0  0  0  0  0  0  0  0  0  0  0  0
   -0.7160   10.9490   -1.3060 C   0  0  0  0  0  0  0  0  0  0  0  0
    0.6740   11.0390   -1.9500 C   0  0  1  0  0  0  0  0  0  0  0  0
    0.9990    9.7020   -2.6670 C   0  0  0  0  0  0  0  0  0  0  0  0
    0.8600    8.4940   -1.7450 C   0  0  0  0  0  0  0  0  0  0  0  0
   -0.5510    8.4060   -1.1710 C   0  0  2  0  0  0  0  0  0  0  0  0
   -1.4650    8.1230   -2.2340 O   0  0  0  0  0  0  0  0  0  0  0  0
   -0.9940    9.7010   -0.4330 C   0  0  0  0  0  0  0  0  0  0  0  0
   -0.1980    9.8450    0.8880 C   0  0  0  0  0  0  0  0  0  0  0  0
   -2.4830    9.5330   -0.0260 C   0  0  0  0  0  0  0  0  0  0  0  0
    0.9280   12.3050   -2.8750 C   0  0  1  0  0  0  0  0  0  0  0  0
    0.4460   12.0090   -4.3280 C   0  0  0  0  0  0  0  0  0  0  0  0
    2.4770   12.5720   -2.9670 C   0  0  0  0  0  0  0  0  0  0  0  0
    3.0940   13.4670   -1.8750 C   0  0  0  0  0  0  0  0  0  0  0  0
    2.2870   14.7570   -1.7020 C   0  0  2  0  0  0  0  0  0  0  0  0
    2.3610   15.5520   -3.0500 C   0  0  0  0  0  0  0  0  0  0  0  0
    4.0380   16.6941    1.3620 H   0  0  0  0  0  0  0  0  0  0  0  0
    5.4398   17.4390    0.5213 H   0  0  0  0  0  0  0  0  0  0  0  0
    3.8472   18.2700    0.5213 H   0  0  0  0  0  0  0  0  0  0  0  0
    4.8141   15.9138   -1.0743 H   0  0  0  0  0  0  0  0  0  0  0  0
    4.6949   17.8189   -2.3896 H   0  0  0  0  0  0  0  0  0  0  0  0
    3.0866   17.0038   -2.6947 H   0  0  0  0  0  0  0  0  0  0  0  0
    2.8772   18.8294   -0.4675 H   0  0  0  0  0  0  0  0  0  0  0  0
    3.5484   19.6696   -1.9271 H   0  0  0  0  0  0  0  0  0  0  0  0
    1.7352   17.8631   -2.6151 H   0  0  0  0  0  0  0  0  0  0  0  0
    0.4030   19.4461    0.6245 H   0  0  0  0  0  0  0  0  0  0  0  0
    1.5493   20.6395   -0.0744 H   0  0  0  0  0  0  0  0  0  0  0  0
   -0.2142   20.9815   -0.0744 H   0  0  0  0  0  0  0  0  0  0  0  0
   -1.5729   18.9473   -1.0263 H   0  0  0  0  0  0  0  0  0  0  0  0
   -1.4126   19.9307   -2.5209 H   0  0  0  0  0  0  0  0  0  0  0  0
   -0.9053   18.2075   -2.5209 H   0  0  0  0  0  0  0  0  0  0  0  0
    3.0702   15.1178    0.3056 H   0  0  0  0  0  0  0  0  0  0  0  0
    1.2896   16.6823    0.7734 H   0  0  0  0  0  0  0  0  0  0  0  0
    1.5555   17.5595   -0.7483 H   0  0  0  0  0  0  0  0  0  0  0  0
   -0.5760   15.7248   -0.2392 H   0  0  0  0  0  0  0  0  0  0  0  0
   -0.1152   16.2820   -1.8460 H   0  0  0  0  0  0  0  0  0  0  0  0
    0.8285   14.3417    0.9483 H   0  0  0  0  0  0  0  0  0  0  0  0
   -0.1955   13.0763    0.1888 H   0  0  0  0  0  0  0  0  0  0  0  0
    1.5926   12.9044    0.1888 H   0  0  0  0  0  0  0  0  0  0  0  0
    0.1349   14.3000   -3.2158 H   0  0  0  0  0  0  0  0  0  0  0  0
   -1.7794   14.0483   -1.5087 H   0  0  0  0  0  0  0  0  0  0  0  0
   -1.8213   13.1667   -3.1245 H   0  0  0  0  0  0  0  0  0  0  0  0
   -2.6117   11.7879   -1.0241 H   0  0  0  0  0  0  0  0  0  0  0  0
    1.3826   11.2019   -1.1246 H   0  0  0  0  0  0  0  0  0  0  0  0
    0.3087    9.5797   -3.5147 H   0  0  0  0  0  0  0  0  0  0  0  0
    2.0462    9.7483   -3.0006 H   0  0  0  0  0  0  0  0  0  0  0  0
    1.0741    7.5786   -2.3162 H   0  0  0  0  0  0  0  0  0  0  0  0
    1.5714    8.6034   -0.9132 H   0  0  0  0  0  0  0  0  0  0  0  0
   -0.5519    7.6009   -0.4214 H   0  0  0  0  0  0  0  0  0  0  0  0
   -1.9610    8.9370   -2.4210 H   0  0  0  0  0  0  0  0  0  0  0  0
   -0.8799    9.7216    1.7423 H   0  0  0  0  0  0  0  0  0  0  0  0
    0.5855    9.0740    0.9299 H   0  0  0  0  0  0  0  0  0  0  0  0
    0.2657   10.8416    0.9299 H   0  0  0  0  0  0  0  0  0  0  0  0
   -2.5645    9.5238    1.0709 H   0  0  0  0  0  0  0  0  0  0  0  0
   -3.0704   10.3706   -0.4303 H   0  0  0  0  0  0  0  0  0  0  0  0
   -2.8690    8.5856   -0.4303 H   0  0  0  0  0  0  0  0  0  0  0  0
   -0.4909   11.4336   -4.2935 H   0  0  0  0  0  0  0  0  0  0  0  0
    0.2744   12.9576   -4.8578 H   0  0  0  0  0  0  0  0  0  0  0  0
    1.2144   11.4269   -4.8578 H   0  0  0  0  0  0  0  0  0  0  0  0
    2.9857   11.5976   -2.9252 H   0  0  0  0  0  0  0  0  0  0  0  0
    2.6182   13.1260   -3.9068 H   0  0  0  0  0  0  0  0  0  0  0  0
    3.1027   12.9176   -0.9221 H   0  0  0  0  0  0  0  0  0  0  0  0
    4.1182   13.7320   -2.1764 H   0  0  0  0  0  0  0  0  0  0  0  0
    2.4610   16.6265   -2.8369 H   0  0  0  0  0  0  0  0  0  0  0  0
    3.2312   15.2106   -3.6297 H   0  0  0  0  0  0  0  0  0  0  0  0
    1.4427   15.3771   -3.6297 H   0  0  0  0  0  0  0  0  0  0  0  0
  1  2  1  0
  2  3  1  0
  3  4  1  0
  4  5  1  0
  5  6  1  0
  6  7  1  0
  7  8  1  0
  7  9  1  0
  2 10  1  0
 10 11  1  0
 11 12  1  0
 12 13  1  0
 13 14  1  1
 13 15  1  0
 15 16  1  0
 16 17  1  0
 17 18  2  0
 18 19  1  0
 19 20  1  0
 20 21  1  0
 21 22  1  0
 22 23  1  0
 22 24  1  0
 24 25  1  0
 24 26  1  0
 19 27  1  0
 27 28  1  6
 27 29  1  0
 29 30  1  0
 30 31  1  0
 31 32  1  6
  7  5  1  0
 31 10  1  0
 31 13  1  0
 27 15  1  0
 24 18  1  0
  1 33  1  0
  1 34  1  0
  1 35  1  0
  2 36  1  6
  3 37  1  0
  3 38  1  0
  4 39  1  0
  4 40  1  0
  5 41  1  6
  8 42  1  0
  8 43  1  0
  8 44  1  0
  9 45  1  0
  9 46  1  0
  9 47  1  0
 10 48  1  1
 11 49  1  0
 11 50  1  0
 12 51  1  0
 12 52  1  0
 14 53  1  0
 14 54  1  0
 14 55  1  0
 15 56  1  6
 16 57  1  0
 16 58  1  0
 17 59  1  0
 19 60  1  1
 20 61  1  0
 20 62  1  0
 21 63  1  0
 21 64  1  0
 22 65  1  1
 23 66  1  0
 25 67  1  0
 25 68  1  0
 25 69  1  0
 26 70  1  0
 26 71  1  0
 26 72  1  0
 28 73  1  0
 28 74  1  0
 28 75  1  0
 29 76  1  0
 29 77  1  0
 30 78  1  0
 30 79  1  0
 32 80  1  0
 32 81  1  0
 32 82  1  0
M  END
>  <meeko>  (8) 
{"is_sidechain": [false], "intermolecular_energy": 2.731, "internal_energy": -0.839}

$$$$
EPH_relaxed_0001_pdb2pqr_Repair_138_r2_0001_out
     RDKit          3D

 82 86  0  0  0  0  0  0  0  0999 V2000
    4.4410   17.5410   -2.6990 C   0  0  0  0  0  0  0  0  0  0  0  0
    3.0460   17.0790   -2.2700 C   0  0  2  0  0  0  0  0  0  0  0  0
    2.7150   17.4980   -0.8240 C   0  0  0  0  0  0  0  0  0  0  0  0
    3.7100   18.5000   -0.2300 C   0  0  0  0  0  0  0  0  0  0  0  0
    3.4680   18.7210    1.2320 C   0  0  2  0  0  0  0  0  0  0  0  0
    3.7560   20.0480    1.6930 O   0  0  0  0  0  0  0  0  0  0  0  0
    4.5760   18.9980    2.2310 C   0  0  0  0  0  0  0  0  0  0  0  0
    6.0090   19.0660    1.8070 C   0  0  0  0  0  0  0  0  0  0  0  0
    4.3200   18.7160    3.6790 C   0  0  0  0  0  0  0  0  0  0  0  0
    2.9340   15.5660   -2.4120 C   0  0  1  0  0  0  0  0  0  0  0  0
    4.3080   14.8840   -2.6480 C   0  0  0  0  0  0  0  0  0  0  0  0
    4.2570   13.5130   -1.9260 C   0  0  0  0  0  0  0  0  0  0  0  0
    2.7620   13.3070   -1.5860 C   0  0  1  0  0  0  0  0  0  0  0  0
    2.1200   12.7770   -2.9060 C   0  0  0  0  0  0  0  0  0  0  0  0
    2.4530   12.3660   -0.3760 C   0  0  2  0  0  0  0  0  0  0  0  0
    2.9130   10.9080   -0.5480 C   0  0  0  0  0  0  0  0  0  0  0  0
    1.9060    9.9900   -1.1570 C   0  0  0  0  0  0  0  0  0  0  0  0
    0.5920   10.2470   -1.2900 C   0  0  0  0  0  0  0  0  0  0  0  0
   -0.0220   11.5290   -0.7120 C   0  0  1  0  0  0  0  0  0  0  0  0
   -1.3260   11.1790    0.0530 C   0  0  0  0  0  0  0  0  0  0  0  0
   -2.3140   10.3930   -0.8030 C   0  0  0  0  0  0  0  0  0  0  0  0
   -1.6860    9.0980   -1.3120 C   0  0  2  0  0  0  0  0  0  0  0  0
   -1.4480    8.2330   -0.1970 O   0  0  0  0  0  0  0  0  0  0  0  0
   -0.3600    9.3240   -2.0910 C   0  0  0  0  0  0  0  0  0  0  0  0
   -0.6640   10.0010   -3.4500 C   0  0  0  0  0  0  0  0  0  0  0  0
    0.2410    7.9320   -2.4240 C   0  0  0  0  0  0  0  0  0  0  0  0
    0.9580   12.4440    0.1400 C   0  0  1  0  0  0  0  0  0  0  0  0
    0.9750   11.9690    1.6250 C   0  0  0  0  0  0  0  0  0  0  0  0
    0.4060   13.9180    0.1510 C   0  0  0  0  0  0  0  0  0  0  0  0
    0.8430   14.8340   -1.0080 C   0  0  0  0  0  0  0  0  0  0  0  0
    2.3610   14.7790   -1.2070 C   0  0  2  0  0  0  0  0  0  0  0  0
    3.0350   15.3260    0.0980 C   0  0  0  0  0  0  0  0  0  0  0  0
    5.0510   17.7430   -1.8062 H   0  0  0  0  0  0  0  0  0  0  0  0
    4.9196   16.7534   -3.2995 H   0  0  0  0  0  0  0  0  0  0  0  0
    4.3548   18.4586   -3.2995 H   0  0  0  0  0  0  0  0  0  0  0  0
    2.3166   17.5699   -2.9311 H   0  0  0  0  0  0  0  0  0  0  0  0
    1.7146   17.9553   -0.8153 H   0  0  0  0  0  0  0  0  0  0  0  0
    2.7665   16.5893   -0.2063 H   0  0  0  0  0  0  0  0  0  0  0  0
    4.7305   18.1134   -0.3679 H   0  0  0  0  0  0  0  0  0  0  0  0
    3.5792   19.4614   -0.7483 H   0  0  0  0  0  0  0  0  0  0  0  0
    2.6418   17.9948    1.2289 H   0  0  0  0  0  0  0  0  0  0  0  0
    6.6538   19.0966    2.6976 H   0  0  0  0  0  0  0  0  0  0  0  0
    6.2560   18.1786    1.2058 H   0  0  0  0  0  0  0  0  0  0  0  0
    6.1709   19.9728    1.2058 H   0  0  0  0  0  0  0  0  0  0  0  0
    4.9315   19.3896    4.2974 H   0  0  0  0  0  0  0  0  0  0  0  0
    3.2552   18.8793    3.9017 H   0  0  0  0  0  0  0  0  0  0  0  0
    4.5852   17.6719    3.9017 H   0  0  0  0  0  0  0  0  0  0  0  0
    2.2378   15.5123   -3.2620 H   0  0  0  0  0  0  0  0  0  0  0  0
    4.4788   14.7388   -3.7249 H   0  0  0  0  0  0  0  0  0  0  0  0
    5.1288   15.5046   -2.2593 H   0  0  0  0  0  0  0  0  0  0  0  0
    4.6189   12.7120   -2.5874 H   0  0  0  0  0  0  0  0  0  0  0  0
    4.8958   13.4887   -1.0308 H   0  0  0  0  0  0  0  0  0  0  0  0
    1.2927   12.0940   -2.6629 H   0  0  0  0  0  0  0  0  0  0  0  0
    1.7356   13.6243   -3.4928 H   0  0  0  0  0  0  0  0  0  0  0  0
    2.8792   12.2391   -3.4928 H   0  0  0  0  0  0  0  0  0  0  0  0
    3.0877   12.7867    0.4178 H   0  0  0  0  0  0  0  0  0  0  0  0
    3.8063   10.9068   -1.1899 H   0  0  0  0  0  0  0  0  0  0  0  0
    3.0994   10.5257    0.4665 H   0  0  0  0  0  0  0  0  0  0  0  0
    2.2691    9.0205   -1.5289 H   0  0  0  0  0  0  0  0  0  0  0  0
   -0.2556   12.1702   -1.5747 H   0  0  0  0  0  0  0  0  0  0  0  0
   -1.0660   10.5755    0.9352 H   0  0  0  0  0  0  0  0  0  0  0  0
   -1.8100   12.1249    0.3375 H   0  0  0  0  0  0  0  0  0  0  0  0
   -3.2001   10.1498   -0.1983 H   0  0  0  0  0  0  0  0  0  0  0  0
   -2.5963   11.0100   -1.6688 H   0  0  0  0  0  0  0  0  0  0  0  0
   -2.3929    8.6454   -2.0229 H   0  0  0  0  0  0  0  0  0  0  0  0
   -1.3240    8.7930    0.5890 H   0  0  0  0  0  0  0  0  0  0  0  0
   -1.1088   10.9917   -3.2748 H   0  0  0  0  0  0  0  0  0  0  0  0
    0.2698   10.1141   -4.0203 H   0  0  0  0  0  0  0  0  0  0  0  0
   -1.3689    9.3782   -4.0203 H   0  0  0  0  0  0  0  0  0  0  0  0
    0.4711    7.3990   -1.4897 H   0  0  0  0  0  0  0  0  0  0  0  0
   -0.4857    7.3493   -3.0091 H   0  0  0  0  0  0  0  0  0  0  0  0
    1.1634    8.0613   -3.0091 H   0  0  0  0  0  0  0  0  0  0  0  0
    0.9437   12.8444    2.2904 H   0  0  0  0  0  0  0  0  0  0  0  0
    0.0991   11.3316    1.8161 H   0  0  0  0  0  0  0  0  0  0  0  0
    1.8942   11.3959    1.8161 H   0  0  0  0  0  0  0  0  0  0  0  0
   -0.6924   13.8617    0.1342 H   0  0  0  0  0  0  0  0  0  0  0  0
    0.8314   14.3770    1.0556 H   0  0  0  0  0  0  0  0  0  0  0  0
    0.3465   14.5058   -1.9331 H   0  0  0  0  0  0  0  0  0  0  0  0
    0.5581   15.8682   -0.7647 H   0  0  0  0  0  0  0  0  0  0  0  0
    2.5222   14.9098    0.9777 H   0  0  0  0  0  0  0  0  0  0  0  0
    4.0939   15.0287    0.1161 H   0  0  0  0  0  0  0  0  0  0  0  0
    2.9619   16.4234    0.1161 H   0  0  0  0  0  0  0  0  0  0  0  0
  1  2  1  0
  2  3  1  0
  3  4  1  0
  4  5  1  0
  5  6  1  0
  6  7  1  0
  7  8  1  0
  7  9  1  0
  2 10  1  0
 10 11  1  0
 11 12  1  0
 12 13  1  0
 13 14  1  6
 13 15  1  0
 15 16  1  0
 16 17  1  0
 17 18  2  0
 18 19  1  0
 19 20  1  0
 20 21  1  0
 21 22  1  0
 22 23  1  0
 22 24  1  0
 24 25  1  0
 24 26  1  0
 19 27  1  0
 27 28  1  1
 27 29  1  0
 29 30  1  0
 30 31  1  0
 31 32  1  1
  7  5  1  0
 31 10  1  0
 31 13  1  0
 27 15  1  0
 24 18  1  0
  1 33  1  0
  1 34  1  0
  1 35  1  0
  2 36  1  6
  3 37  1  0
  3 38  1  0
  4 39  1  0
  4 40  1  0
  5 41  1  1
  8 42  1  0
  8 43  1  0
  8 44  1  0
  9 45  1  0
  9 46  1  0
  9 47  1  0
 10 48  1  6
 11 49  1  0
 11 50  1  0
 12 51  1  0
 12 52  1  0
 14 53  1  0
 14 54  1  0
 14 55  1  0
 15 56  1  1
 16 57  1  0
 16 58  1  0
 17 59  1  0
 19 60  1  6
 20 61  1  0
 20 62  1  0
 21 63  1  0
 21 64  1  0
 22 65  1  6
 23 66  1  0
 25 67  1  0
 25 68  1  0
 25 69  1  0
 26 70  1  0
 26 71  1  0
 26 72  1  0
 28 73  1  0
 28 74  1  0
 28 75  1  0
 29 76  1  0
 29 77  1  0
 30 78  1  0
 30 79  1  0
 32 80  1  0
 32 81  1  0
 32 82  1  0
M  END
>  <meeko>  (9) 
{"is_sidechain": [false], "intermolecular_energy": 2.731, "internal_energy": -0.839}

$$$$
EPH_relaxed_0001_pdb2pqr_Repair_138_r2_0001_out
     RDKit          3D

 82 86  0  0  0  0  0  0  0  0999 V2000
    0.3150   17.7930   -0.1160 C   0  0  0  0  0  0  0  0  0  0  0  0
    1.2130   17.1450   -1.1730 C   0  0  2  0  0  0  0  0  0  0  0  0
    1.5150   18.1020   -2.3440 C   0  0  0  0  0  0  0  0  0  0  0  0
    3.0090   18.3400   -2.5750 C   0  0  0  0  0  0  0  0  0  0  0  0
    3.8300   17.1560   -2.1580 C   0  0  2  0  0  0  0  0  0  0  0  0
    4.9880   17.4760   -1.3760 O   0  0  0  0  0  0  0  0  0  0  0  0
    5.2350   16.8920   -2.6650 C   0  0  0  0  0  0  0  0  0  0  0  0
    5.9020   17.8170   -3.6350 C   0  0  0  0  0  0  0  0  0  0  0  0
    5.7680   15.4950   -2.6010 C   0  0  0  0  0  0  0  0  0  0  0  0
    0.5620   15.8700   -1.6980 C   0  0  1  0  0  0  0  0  0  0  0  0
    0.1260   15.9890   -3.1820 C   0  0  0  0  0  0  0  0  0  0  0  0
    0.3370   14.5930   -3.8230 C   0  0  0  0  0  0  0  0  0  0  0  0
    0.5660   13.6440   -2.6240 C   0  0  1  0  0  0  0  0  0  0  0  0
   -0.8640   13.3210   -2.0880 C   0  0  0  0  0  0  0  0  0  0  0  0
    1.3800   12.3410   -2.9190 C   0  0  2  0  0  0  0  0  0  0  0  0
    0.7270   11.3790   -3.9270 C   0  0  0  0  0  0  0  0  0  0  0  0
   -0.1730   10.3470   -3.3330 C   0  0  0  0  0  0  0  0  0  0  0  0
   -0.2270   10.0140   -2.0300 C   0  0  0  0  0  0  0  0  0  0  0  0
    0.7450   10.6330   -1.0170 C   0  0  1  0  0  0  0  0  0  0  0  0
    1.3280    9.5180   -0.1100 C   0  0  0  0  0  0  0  0  0  0  0  0
    0.2410    8.6810    0.5600 C   0  0  0  0  0  0  0  0  0  0  0  0
   -0.6690    8.0350   -0.4810 C   0  0  2  0  0  0  0  0  0  0  0  0
    0.0870    7.0720   -1.2210 O   0  0  0  0  0  0  0  0  0  0  0  0
   -1.3070    9.0610   -1.4590 C   0  0  0  0  0  0  0  0  0  0  0  0
   -2.3580    9.9140   -0.7060 C   0  0  0  0  0  0  0  0  0  0  0  0
   -2.0860    8.2680   -2.5420 C   0  0  0  0  0  0  0  0  0  0  0  0
    1.8710   11.5760   -1.6240 C   0  0  1  0  0  0  0  0  0  0  0  0
    3.1050   10.7240   -2.0520 C   0  0  0  0  0  0  0  0  0  0  0  0
    2.3760   12.5600   -0.5040 C   0  0  0  0  0  0  0  0  0  0  0  0
    1.6050   13.8830   -0.3410 C   0  0  0  0  0  0  0  0  0  0  0  0
    1.4190   14.5800   -1.6920 C   0  0  2  0  0  0  0  0  0  0  0  0
    2.8410   14.9370   -2.2460 C   0  0  0  0  0  0  0  0  0  0  0  0
    0.6806   17.5292    0.8874 H   0  0  0  0  0  0  0  0  0  0  0  0
    0.3351   18.8860   -0.2379 H   0  0  0  0  0  0  0  0  0  0  0  0
   -0.7160   17.4294   -0.2379 H   0  0  0  0  0  0  0  0  0  0  0  0
    2.1705   16.9018   -0.6892 H   0  0  0  0  0  0  0  0  0  0  0  0
    1.0856   17.6739   -3.2618 H   0  0  0  0  0  0  0  0  0  0  0  0
    1.0707   19.0748   -2.0866 H   0  0  0  0  0  0  0  0  0  0  0  0
    3.1782   18.5322   -3.6448 H   0  0  0  0  0  0  0  0  0  0  0  0
    3.3171   19.2027   -1.9661 H   0  0  0  0  0  0  0  0  0  0  0  0
    2.9326   16.5219   -2.1075 H   0  0  0  0  0  0  0  0  0  0  0  0
    6.4584   18.5886   -3.0826 H   0  0  0  0  0  0  0  0  0  0  0  0
    6.5974   17.2457   -4.2676 H   0  0  0  0  0  0  0  0  0  0  0  0
    5.1404   18.2963   -4.2676 H   0  0  0  0  0  0  0  0  0  0  0  0
    5.8828   15.1942   -1.5492 H   0  0  0  0  0  0  0  0  0  0  0  0
    5.0673   14.8119   -3.1034 H   0  0  0  0  0  0  0  0  0  0  0  0
    6.7456   15.4522   -3.1034 H   0  0  0  0  0  0  0  0  0  0  0  0
   -0.2648   15.7755   -0.9786 H   0  0  0  0  0  0  0  0  0  0  0  0
   -0.9336   16.2780   -3.2436 H   0  0  0  0  0  0  0  0  0  0  0  0
    0.7134   16.7573   -3.7061 H   0  0  0  0  0  0  0  0  0  0  0  0
   -0.5527   14.2894   -4.3941 H   0  0  0  0  0  0  0  0  0  0  0  0
    1.1791   14.5818   -4.5307 H   0  0  0  0  0  0  0  0  0  0  0  0
   -0.8525   13.3236   -0.9881 H   0  0  0  0  0  0  0  0  0  0  0  0
   -1.5715   14.0820   -2.4491 H   0  0  0  0  0  0  0  0  0  0  0  0
   -1.1757   12.3298   -2.4491 H   0  0  0  0  0  0  0  0  0  0  0  0
    2.2791   12.7319   -3.4179 H   0  0  0  0  0  0  0  0  0  0  0  0
    0.1359   11.9785   -4.6349 H   0  0  0  0  0  0  0  0  0  0  0  0
    1.5529   10.8268   -4.3993 H   0  0  0  0  0  0  0  0  0  0  0  0
   -0.8489    9.8138   -4.0177 H   0  0  0  0  0  0  0  0  0  0  0  0
    0.1489   11.3323   -0.4123 H   0  0  0  0  0  0  0  0  0  0  0  0
    1.9549    8.8552   -0.7246 H   0  0  0  0  0  0  0  0  0  0  0  0
    1.9121   10.0051    0.6847 H   0  0  0  0  0  0  0  0  0  0  0  0
    0.7144    7.8924    1.1633 H   0  0  0  0  0  0  0  0  0  0  0  0
   -0.3669    9.3400    1.1973 H   0  0  0  0  0  0  0  0  0  0  0  0
   -1.5000    7.5578    0.0592 H   0  0  0  0  0  0  0  0  0  0  0  0
    0.2190    7.4260   -2.1160 H   0  0  0  0  0  0  0  0  0  0  0  0
   -2.2153    9.7982    0.3785 H   0  0  0  0  0  0  0  0  0  0  0  0
   -2.2365   10.9721   -0.9809 H   0  0  0  0  0  0  0  0  0  0  0  0
   -3.3685    9.5774   -0.9809 H   0  0  0  0  0  0  0  0  0  0  0  0
   -2.7772    7.5644   -2.0550 H   0  0  0  0  0  0  0  0  0  0  0  0
   -2.6572    8.9682   -3.1693 H   0  0  0  0  0  0  0  0  0  0  0  0
   -1.3758    7.7094   -3.1693 H   0  0  0  0  0  0  0  0  0  0  0  0
    3.6294   10.3620   -1.1554 H   0  0  0  0  0  0  0  0  0  0  0  0
    2.7677    9.8654   -2.6513 H   0  0  0  0  0  0  0  0  0  0  0  0
    3.7883   11.3436   -2.6513 H   0  0  0  0  0  0  0  0  0  0  0  0
    2.3254   12.0252    0.4559 H   0  0  0  0  0  0  0  0  0  0  0  0
    3.3890   12.8544   -0.8158 H   0  0  0  0  0  0  0  0  0  0  0  0
    0.6169   13.6723    0.0941 H   0  0  0  0  0  0  0  0  0  0  0  0
    2.1832   14.5465    0.3189 H   0  0  0  0  0  0  0  0  0  0  0  0
    3.5292   15.1098   -1.4055 H   0  0  0  0  0  0  0  0  0  0  0  0
    3.2146   14.1048   -2.8607 H   0  0  0  0  0  0  0  0  0  0  0  0
    2.7772   15.8470   -2.8607 H   0  0  0  0  0  0  0  0  0  0  0  0
  1  2  1  0
  2  3  1  0
  3  4  1  0
  4  5  1  0
  5  6  1  0
  6  7  1  0
  7  8  1  0
  7  9  1  0
  2 10  1  0
 10 11  1  0
 11 12  1  0
 12 13  1  0
 13 14  1  1
 13 15  1  0
 15 16  1  0
 16 17  1  0
 17 18  2  0
 18 19  1  0
 19 20  1  0
 20 21  1  0
 21 22  1  0
 22 23  1  0
 22 24  1  0
 24 25  1  0
 24 26  1  0
 19 27  1  0
 27 28  1  6
 27 29  1  0
 29 30  1  0
 30 31  1  0
 31 32  1  6
  7  5  1  0
 31 10  1  0
 31 13  1  0
 27 15  1  0
 24 18  1  0
  1 33  1  0
  1 34  1  0
  1 35  1  0
  2 36  1  1
  3 37  1  0
  3 38  1  0
  4 39  1  0
  4 40  1  0
  5 41  1  1
  8 42  1  0
  8 43  1  0
  8 44  1  0
  9 45  1  0
  9 46  1  0
  9 47  1  0
 10 48  1  1
 11 49  1  0
 11 50  1  0
 12 51  1  0
 12 52  1  0
 14 53  1  0
 14 54  1  0
 14 55  1  0
 15 56  1  6
 16 57  1  0
 16 58  1  0
 17 59  1  0
 19 60  1  1
 20 61  1  0
 20 62  1  0
 21 63  1  0
 21 64  1  0
 22 65  1  1
 23 66  1  0
 25 67  1  0
 25 68  1  0
 25 69  1  0
 26 70  1  0
 26 71  1  0
 26 72  1  0
 28 73  1  0
 28 74  1  0
 28 75  1  0
 29 76  1  0
 29 77  1  0
 30 78  1  0
 30 79  1  0
 32 80  1  0
 32 81  1  0
 32 82  1  0
M  END
>  <meeko>  (10) 
{"is_sidechain": [false], "intermolecular_energy": 2.731, "internal_energy": -0.839}

$$$$
EPH_relaxed_0001_pdb2pqr_Repair_138_r2_0001_out
     RDKit          3D

 82 86  0  0  0  0  0  0  0  0999 V2000
    2.2290   19.2870    0.0450 C   0  0  0  0  0  0  0  0  0  0  0  0
    2.8880   17.9320   -0.2290 C   0  0  2  0  0  0  0  0  0  0  0  0
    3.6980   17.9350   -1.5400 C   0  0  0  0  0  0  0  0  0  0  0  0
    5.1930   17.6710   -1.3400 C   0  0  0  0  0  0  0  0  0  0  0  0
    5.9620   17.8460   -2.6150 C   0  0  2  0  0  0  0  0  0  0  0  0
    5.1950   17.6470   -3.8090 O   0  0  0  0  0  0  0  0  0  0  0  0
    6.2590   16.7100   -3.5760 C   0  0  0  0  0  0  0  0  0  0  0  0
    5.7930   15.3150   -3.3020 C   0  0  0  0  0  0  0  0  0  0  0  0
    7.4100   16.8560   -4.5220 C   0  0  0  0  0  0  0  0  0  0  0  0
    1.8270   16.8390   -0.2740 C   0  0  1  0  0  0  0  0  0  0  0  0
    0.4190   17.3870   -0.6270 C   0  0  0  0  0  0  0  0  0  0  0  0
   -0.2860   16.2970   -1.4750 C   0  0  0  0  0  0  0  0  0  0  0  0
    0.5970   15.0390   -1.3050 C   0  0  1  0  0  0  0  0  0  0  0  0
    0.1660   14.4290    0.0660 C   0  0  0  0  0  0  0  0  0  0  0  0
    0.5230   13.9820   -2.4550 C   0  0  2  0  0  0  0  0  0  0  0  0
   -0.8590   13.3390   -2.6620 C   0  0  0  0  0  0  0  0  0  0  0  0
   -1.1040   12.0910   -1.8810 C   0  0  0  0  0  0  0  0  0  0  0  0
   -0.1600   11.3530   -1.2680 C   0  0  0  0  0  0  0  0  0  0  0  0
    1.3270   11.7020   -1.4090 C   0  0  1  0  0  0  0  0  0  0  0  0
    2.1340   10.4140   -1.7190 C   0  0  0  0  0  0  0  0  0  0  0  0
    1.8890    9.3090   -0.6960 C   0  0  0  0  0  0  0  0  0  0  0  0
    0.4070    8.9500   -0.6270 C   0  0  2  0  0  0  0  0  0  0  0  0
    0.0190    8.3500   -1.8670 O   0  0  0  0  0  0  0  0  0  0  0  0
   -0.5070   10.1710   -0.3290 C   0  0  0  0  0  0  0  0  0  0  0  0
   -0.2960   10.6350    1.1340 C   0  0  0  0  0  0  0  0  0  0  0  0
   -1.9830    9.6990   -0.4260 C   0  0  0  0  0  0  0  0  0  0  0  0
    1.6680   12.8910   -2.4070 C   0  0  1  0  0  0  0  0  0  0  0  0
    1.8200   12.3410   -3.8580 C   0  0  0  0  0  0  0  0  0  0  0  0
    3.0640   13.5050   -2.0160 C   0  0  0  0  0  0  0  0  0  0  0  0
    3.0590   14.6280   -0.9610 C   0  0  0  0  0  0  0  0  0  0  0  0
    2.0230   15.7010   -1.3080 C   0  0  2  0  0  0  0  0  0  0  0  0
    2.4420   16.3480   -2.6720 C   0  0  0  0  0  0  0  0  0  0  0  0
    2.1524   19.4446    1.1310 H   0  0  0  0  0  0  0  0  0  0  0  0
    2.8383   20.0877   -0.3996 H   0  0  0  0  0  0  0  0  0  0  0  0
    1.2230   19.3020   -0.3996 H   0  0  0  0  0  0  0  0  0  0  0  0
    3.5920   17.7334    0.5926 H   0  0  0  0  0  0  0  0  0  0  0  0
    3.2927   17.1543   -2.2005 H   0  0  0  0  0  0  0  0  0  0  0  0
    3.6043   18.9416   -1.9737 H   0  0  0  0  0  0  0  0  0  0  0  0
    5.5821   18.3748   -0.5895 H   0  0  0  0  0  0  0  0  0  0  0  0
    5.3159   16.6304   -1.0053 H   0  0  0  0  0  0  0  0  0  0  0  0
    6.6068   18.6057   -2.1490 H   0  0  0  0  0  0  0  0  0  0  0  0
    5.7390   15.1533   -2.2153 H   0  0  0  0  0  0  0  0  0  0  0  0
    4.7968   15.1676   -3.7446 H   0  0  0  0  0  0  0  0  0  0  0  0
    6.5006   14.5985   -3.7446 H   0  0  0  0  0  0  0  0  0  0  0  0
    8.3421   16.9742   -3.9499 H   0  0  0  0  0  0  0  0  0  0  0  0
    7.4799   15.9595   -5.1556 H   0  0  0  0  0  0  0  0  0  0  0  0
    7.2538   17.7415   -5.1556 H   0  0  0  0  0  0  0  0  0  0  0  0
    1.9271   16.4421    0.7470 H   0  0  0  0  0  0  0  0  0  0  0  0
   -0.1533   17.5809    0.2922 H   0  0  0  0  0  0  0  0  0  0  0  0
    0.4916   18.3337   -1.1824 H   0  0  0  0  0  0  0  0  0  0  0  0
   -1.3033   16.1110   -1.1002 H   0  0  0  0  0  0  0  0  0  0  0  0
   -0.3926   16.5926   -2.5292 H   0  0  0  0  0  0  0  0  0  0  0  0
    0.5903   15.0295    0.8841 H   0  0  0  0  0  0  0  0  0  0  0  0
   -0.9315   14.4321    0.1399 H   0  0  0  0  0  0  0  0  0  0  0  0
    0.5355   13.3956    0.1399 H   0  0  0  0  0  0  0  0  0  0  0  0
    0.7039   14.5944   -3.3507 H   0  0  0  0  0  0  0  0  0  0  0  0
   -1.6234   14.0758   -2.3743 H   0  0  0  0  0  0  0  0  0  0  0  0
   -0.9044   13.0489   -3.7221 H   0  0  0  0  0  0  0  0  0  0  0  0
   -2.1449   11.7448   -1.7994 H   0  0  0  0  0  0  0  0  0  0  0  0
    1.6372   12.1114   -0.4363 H   0  0  0  0  0  0  0  0  0  0  0  0
    1.8412   10.0453   -2.7131 H   0  0  0  0  0  0  0  0  0  0  0  0
    3.2025   10.6726   -1.6813 H   0  0  0  0  0  0  0  0  0  0  0  0
    2.4628    8.4163   -0.9856 H   0  0  0  0  0  0  0  0  0  0  0  0
    2.2103    9.6678    0.2929 H   0  0  0  0  0  0  0  0  0  0  0  0
    0.2770    8.2495    0.2111 H   0  0  0  0  0  0  0  0  0  0  0  0
    0.7560    8.4610   -2.4900 H   0  0  0  0  0  0  0  0  0  0  0  0
   -0.6515    9.8533    1.8215 H   0  0  0  0  0  0  0  0  0  0  0  0
    0.7742   10.8188    1.3096 H   0  0  0  0  0  0  0  0  0  0  0  0
   -0.8609   11.5624    1.3096 H   0  0  0  0  0  0  0  0  0  0  0  0
   -2.3933    9.5678    0.5862 H   0  0  0  0  0  0  0  0  0  0  0  0
   -2.5743   10.4529   -0.9664 H   0  0  0  0  0  0  0  0  0  0  0  0
   -2.0271    8.7419   -0.9664 H   0  0  0  0  0  0  0  0  0  0  0  0
    2.1128   11.2814   -3.8197 H   0  0  0  0  0  0  0  0  0  0  0  0
    0.8615   12.4375   -4.3890 H   0  0  0  0  0  0  0  0  0  0  0  0
    2.5929   12.9160   -4.3890 H   0  0  0  0  0  0  0  0  0  0  0  0
    3.6902   12.6877   -1.6288 H   0  0  0  0  0  0  0  0  0  0  0  0
    3.4384   13.9769   -2.9364 H   0  0  0  0  0  0  0  0  0  0  0  0
    2.8160   14.1975    0.0217 H   0  0  0  0  0  0  0  0  0  0  0  0
    4.0547   15.0951   -0.9410 H   0  0  0  0  0  0  0  0  0  0  0  0
    3.0308   17.2573   -2.4810 H   0  0  0  0  0  0  0  0  0  0  0  0
    3.0485   15.6323   -3.2463 H   0  0  0  0  0  0  0  0  0  0  0  0
    1.5408   16.6087   -3.2463 H   0  0  0  0  0  0  0  0  0  0  0  0
  1  2  1  0
  2  3  1  0
  3  4  1  0
  4  5  1  0
  5  6  1  0
  6  7  1  0
  7  8  1  0
  7  9  1  0
  2 10  1  0
 10 11  1  0
 11 12  1  0
 12 13  1  0
 13 14  1  1
 13 15  1  0
 15 16  1  0
 16 17  1  0
 17 18  2  0
 18 19  1  0
 19 20  1  0
 20 21  1  0
 21 22  1  0
 22 23  1  0
 22 24  1  0
 24 25  1  0
 24 26  1  0
 19 27  1  0
 27 28  1  6
 27 29  1  0
 29 30  1  0
 30 31  1  0
 31 32  1  6
  7  5  1  0
 31 10  1  0
 31 13  1  0
 27 15  1  0
 24 18  1  0
  1 33  1  0
  1 34  1  0
  1 35  1  0
  2 36  1  1
  3 37  1  0
  3 38  1  0
  4 39  1  0
  4 40  1  0
  5 41  1  6
  8 42  1  0
  8 43  1  0
  8 44  1  0
  9 45  1  0
  9 46  1  0
  9 47  1  0
 10 48  1  1
 11 49  1  0
 11 50  1  0
 12 51  1  0
 12 52  1  0
 14 53  1  0
 14 54  1  0
 14 55  1  0
 15 56  1  6
 16 57  1  0
 16 58  1  0
 17 59  1  0
 19 60  1  1
 20 61  1  0
 20 62  1  0
 21 63  1  0
 21 64  1  0
 22 65  1  1
 23 66  1  0
 25 67  1  0
 25 68  1  0
 25 69  1  0
 26 70  1  0
 26 71  1  0
 26 72  1  0
 28 73  1  0
 28 74  1  0
 28 75  1  0
 29 76  1  0
 29 77  1  0
 30 78  1  0
 30 79  1  0
 32 80  1  0
 32 81  1  0
 32 82  1  0
M  END
>  <meeko>  (11) 
{"is_sidechain": [false], "intermolecular_energy": 2.731, "internal_energy": -0.839}

$$$$
EPH_relaxed_0001_pdb2pqr_Repair_138_r2_0001_out
     RDKit          3D

 82 86  0  0  0  0  0  0  0  0999 V2000
    0.9650    8.6880   -0.2830 C   0  0  0  0  0  0  0  0  0  0  0  0
   -0.0990    9.4440   -1.0840 C   0  0  2  0  0  0  0  0  0  0  0  0
   -0.8090    8.5360   -2.1080 C   0  0  0  0  0  0  0  0  0  0  0  0
   -2.3120    8.3840   -1.8570 C   0  0  0  0  0  0  0  0  0  0  0  0
   -2.8830    7.2180   -2.6050 C   0  0  2  0  0  0  0  0  0  0  0  0
   -3.9280    7.5530   -3.5280 O   0  0  0  0  0  0  0  0  0  0  0  0
   -4.3040    6.7200   -2.4190 C   0  0  0  0  0  0  0  0  0  0  0  0
   -5.2410    7.3770   -1.4540 C   0  0  0  0  0  0  0  0  0  0  0  0
   -4.6240    5.3090   -2.8050 C   0  0  0  0  0  0  0  0  0  0  0  0
    0.5340   10.6350   -1.7950 C   0  0  1  0  0  0  0  0  0  0  0  0
    0.1830   10.6850   -3.3050 C   0  0  0  0  0  0  0  0  0  0  0  0
    0.0620   12.1830   -3.6870 C   0  0  0  0  0  0  0  0  0  0  0  0
    0.6670   12.9420   -2.4830 C   0  0  1  0  0  0  0  0  0  0  0  0
    2.2110   12.8800   -2.7050 C   0  0  0  0  0  0  0  0  0  0  0  0
    0.1730   14.4100   -2.2730 C   0  0  2  0  0  0  0  0  0  0  0  0
    0.5020   15.3810   -3.4210 C   0  0  0  0  0  0  0  0  0  0  0  0
    1.8050   16.0990   -3.2940 C   0  0  0  0  0  0  0  0  0  0  0  0
    2.5420   16.1900   -2.1720 C   0  0  0  0  0  0  0  0  0  0  0  0
    2.0310   15.6130   -0.8450 C   0  0  1  0  0  0  0  0  0  0  0  0
    2.2440   16.6520    0.2870 C   0  0  0  0  0  0  0  0  0  0  0  0
    3.6900   17.1320    0.3770 C   0  0  0  0  0  0  0  0  0  0  0  0
    4.1420   17.7510   -0.9430 C   0  0  2  0  0  0  0  0  0  0  0  0
    3.4020   18.9560   -1.1640 O   0  0  0  0  0  0  0  0  0  0  0  0
    3.9660   16.8000   -2.1590 C   0  0  0  0  0  0  0  0  0  0  0  0
    4.9890   15.6410   -2.0660 C   0  0  0  0  0  0  0  0  0  0  0  0
    4.3250   17.5940   -3.4430 C   0  0  0  0  0  0  0  0  0  0  0  0
    0.5540   15.0280   -0.8670 C   0  0  1  0  0  0  0  0  0  0  0  0
   -0.4740   16.1670   -0.5870 C   0  0  0  0  0  0  0  0  0  0  0  0
    0.3960   13.9890    0.3060 C   0  0  0  0  0  0  0  0  0  0  0  0
    0.7890   12.5310   -0.0010 C   0  0  0  0  0  0  0  0  0  0  0  0
    0.1390   12.0500   -1.3020 C   0  0  2  0  0  0  0  0  0  0  0  0
   -1.4140   12.0800   -1.1010 C   0  0  0  0  0  0  0  0  0  0  0  0
    0.7776    8.8212    0.7927 H   0  0  0  0  0  0  0  0  0  0  0  0
    0.9206    7.6177   -0.5332 H   0  0  0  0  0  0  0  0  0  0  0  0
    1.9611    9.0820   -0.5332 H   0  0  0  0  0  0  0  0  0  0  0  0
   -0.8598    9.7971   -0.3724 H   0  0  0  0  0  0  0  0  0  0  0  0
   -0.6659    8.9650   -3.1107 H   0  0  0  0  0  0  0  0  0  0  0  0
   -0.3640    7.5345   -2.0129 H   0  0  0  0  0  0  0  0  0  0  0  0
   -2.4804    8.2340   -0.7804 H   0  0  0  0  0  0  0  0  0  0  0  0
   -2.8131    9.2972   -2.2106 H   0  0  0  0  0  0  0  0  0  0  0  0
   -1.9121    6.7012   -2.5885 H   0  0  0  0  0  0  0  0  0  0  0  0
   -4.9231    7.1541   -0.4248 H   0  0  0  0  0  0  0  0  0  0  0  0
   -5.2286    8.4652   -1.6140 H   0  0  0  0  0  0  0  0  0  0  0  0
   -6.2598    6.9945   -1.6140 H   0  0  0  0  0  0  0  0  0  0  0  0
   -4.7615    4.7028   -1.8975 H   0  0  0  0  0  0  0  0  0  0  0  0
   -5.5487    5.2925   -3.4005 H   0  0  0  0  0  0  0  0  0  0  0  0
   -3.7969    4.8952   -3.4005 H   0  0  0  0  0  0  0  0  0  0  0  0
    1.5934   10.4409   -1.5715 H   0  0  0  0  0  0  0  0  0  0  0  0
    0.9788   10.2068   -3.8949 H   0  0  0  0  0  0  0  0  0  0  0  0
   -0.7548   10.1481   -3.5104 H   0  0  0  0  0  0  0  0  0  0  0  0
    0.6286   12.3967   -4.6053 H   0  0  0  0  0  0  0  0  0  0  0  0
   -0.9780   12.4799   -3.8878 H   0  0  0  0  0  0  0  0  0  0  0  0
    2.7210   12.8595   -1.7306 H   0  0  0  0  0  0  0  0  0  0  0  0
    2.4639   11.9710   -3.2704 H   0  0  0  0  0  0  0  0  0  0  0  0
    2.5360   13.7658   -3.2704 H   0  0  0  0  0  0  0  0  0  0  0  0
   -0.9207   14.2933   -2.2848 H   0  0  0  0  0  0  0  0  0  0  0  0
    0.5207   14.8056   -4.3583 H   0  0  0  0  0  0  0  0  0  0  0  0
   -0.2772   16.1570   -3.3966 H   0  0  0  0  0  0  0  0  0  0  0  0
    2.1956   16.5958   -4.1943 H   0  0  0  0  0  0  0  0  0  0  0  0
    2.6383   14.7172   -0.6482 H   0  0  0  0  0  0  0  0  0  0  0  0
    1.5958   17.5198    0.0955 H   0  0  0  0  0  0  0  0  0  0  0  0
    1.9949   16.1627    1.2402 H   0  0  0  0  0  0  0  0  0  0  0  0
    3.7703   17.8856    1.1743 H   0  0  0  0  0  0  0  0  0  0  0  0
    4.3338   16.2680    0.5985 H   0  0  0  0  0  0  0  0  0  0  0  0
    5.2196   17.9554   -0.8589 H   0  0  0  0  0  0  0  0  0  0  0  0
    2.5850   18.7180   -1.6340 H   0  0  0  0  0  0  0  0  0  0  0  0
    5.1900   15.4133   -1.0088 H   0  0  0  0  0  0  0  0  0  0  0  0
    4.5784   14.7489   -2.5616 H   0  0  0  0  0  0  0  0  0  0  0  0
    5.9252   15.9376   -2.5616 H   0  0  0  0  0  0  0  0  0  0  0  0
    4.7634   18.5635   -3.1640 H   0  0  0  0  0  0  0  0  0  0  0  0
    5.0514   17.0206   -4.0376 H   0  0  0  0  0  0  0  0  0  0  0  0
    3.4147   17.7607   -4.0376 H   0  0  0  0  0  0  0  0  0  0  0  0
   -0.5909   16.2966    0.4991 H   0  0  0  0  0  0  0  0  0  0  0  0
   -0.1113   17.1056   -1.0313 H   0  0  0  0  0  0  0  0  0  0  0  0
   -1.4448   15.9021   -1.0313 H   0  0  0  0  0  0  0  0  0  0  0  0
    1.0218   14.3335    1.1425 H   0  0  0  0  0  0  0  0  0  0  0  0
   -0.6825   13.9579    0.5202 H   0  0  0  0  0  0  0  0  0  0  0  0
    1.8826   12.4663   -0.0999 H   0  0  0  0  0  0  0  0  0  0  0  0
    0.4383   11.8924    0.8231 H   0  0  0  0  0  0  0  0  0  0  0  0
   -1.6445   12.0845   -0.0254 H   0  0  0  0  0  0  0  0  0  0  0  0
   -1.8268   12.9863   -1.5682 H   0  0  0  0  0  0  0  0  0  0  0  0
   -1.8614   11.1903   -1.5682 H   0  0  0  0  0  0  0  0  0  0  0  0
  1  2  1  0
  2  3  1  0
  3  4  1  0
  4  5  1  0
  5  6  1  0
  6  7  1  0
  7  8  1  0
  7  9  1  0
  2 10  1  0
 10 11  1  0
 11 12  1  0
 12 13  1  0
 13 14  1  6
 13 15  1  0
 15 16  1  0
 16 17  1  0
 17 18  2  0
 18 19  1  0
 19 20  1  0
 20 21  1  0
 21 22  1  0
 22 23  1  0
 22 24  1  0
 24 25  1  0
 24 26  1  0
 19 27  1  0
 27 28  1  1
 27 29  1  0
 29 30  1  0
 30 31  1  0
 31 32  1  1
  7  5  1  0
 31 10  1  0
 31 13  1  0
 27 15  1  0
 24 18  1  0
  1 33  1  0
  1 34  1  0
  1 35  1  0
  2 36  1  1
  3 37  1  0
  3 38  1  0
  4 39  1  0
  4 40  1  0
  5 41  1  6
  8 42  1  0
  8 43  1  0
  8 44  1  0
  9 45  1  0
  9 46  1  0
  9 47  1  0
 10 48  1  6
 11 49  1  0
 11 50  1  0
 12 51  1  0
 12 52  1  0
 14 53  1  0
 14 54  1  0
 14 55  1  0
 15 56  1  1
 16 57  1  0
 16 58  1  0
 17 59  1  0
 19 60  1  1
 20 61  1  0
 20 62  1  0
 21 63  1  0
 21 64  1  0
 22 65  1  1
 23 66  1  0
 25 67  1  0
 25 68  1  0
 25 69  1  0
 26 70  1  0
 26 71  1  0
 26 72  1  0
 28 73  1  0
 28 74  1  0
 28 75  1  0
 29 76  1  0
 29 77  1  0
 30 78  1  0
 30 79  1  0
 32 80  1  0
 32 81  1  0
 32 82  1  0
M  END
>  <meeko>  (12) 
{"is_sidechain": [false], "intermolecular_energy": 2.731, "internal_energy": -0.839}

$$$$
EPH_relaxed_0001_pdb2pqr_Repair_138_r2_0001_out
     RDKit          3D

 82 86  0  0  0  0  0  0  0  0999 V2000
    5.1520   17.3780   -2.6450 C   0  0  0  0  0  0  0  0  0  0  0  0
    3.7570   16.8470   -2.9860 C   0  0  2  0  0  0  0  0  0  0  0  0
    2.6840   17.9530   -2.9250 C   0  0  0  0  0  0  0  0  0  0  0  0
    2.4500   18.5060   -1.5170 C   0  0  0  0  0  0  0  0  0  0  0  0
    1.3630   19.5370   -1.5000 C   0  0  2  0  0  0  0  0  0  0  0  0
    1.1800   20.1940   -0.2390 O   0  0  0  0  0  0  0  0  0  0  0  0
    0.0820   19.3910   -0.7000 C   0  0  0  0  0  0  0  0  0  0  0  0
   -0.1800   18.1790    0.1390 C   0  0  0  0  0  0  0  0  0  0  0  0
   -1.1160   20.1870   -1.1140 C   0  0  0  0  0  0  0  0  0  0  0  0
    3.3880   15.7100   -2.0400 C   0  0  1  0  0  0  0  0  0  0  0  0
    3.4400   16.1340   -0.5480 C   0  0  0  0  0  0  0  0  0  0  0  0
    2.3050   15.3640    0.1750 C   0  0  0  0  0  0  0  0  0  0  0  0
    1.8570   14.2860   -0.8390 C   0  0  1  0  0  0  0  0  0  0  0  0
    2.9030   13.1370   -0.6900 C   0  0  0  0  0  0  0  0  0  0  0  0
    0.3940   13.7580   -0.6850 C   0  0  2  0  0  0  0  0  0  0  0  0
    0.0940   13.0450    0.6450 C   0  0  0  0  0  0  0  0  0  0  0  0
    0.3260   11.5710    0.6450 C   0  0  0  0  0  0  0  0  0  0  0  0
    0.4840   10.8040   -0.4500 C   0  0  0  0  0  0  0  0  0  0  0  0
    0.3370   11.3990   -1.8570 C   0  0  1  0  0  0  0  0  0  0  0  0
   -0.5510   10.4680   -2.7230 C   0  0  0  0  0  0  0  0  0  0  0  0
   -0.0410    9.0310   -2.7480 C   0  0  0  0  0  0  0  0  0  0  0  0
    0.0360    8.4540   -1.3370 C   0  0  2  0  0  0  0  0  0  0  0  0
   -1.2910    8.3300   -0.8170 O   0  0  0  0  0  0  0  0  0  0  0  0
    0.8980    9.3140   -0.3700 C   0  0  0  0  0  0  0  0  0  0  0  0
    2.3910    9.2020   -0.7650 C   0  0  0  0  0  0  0  0  0  0  0  0
    0.7770    8.7000    1.0510 C   0  0  0  0  0  0  0  0  0  0  0  0
   -0.1260   12.9180   -1.9210 C   0  0  1  0  0  0  0  0  0  0  0  0
   -1.6830   13.0020   -1.8930 C   0  0  0  0  0  0  0  0  0  0  0  0
    0.3270   13.5360   -3.2970 C   0  0  0  0  0  0  0  0  0  0  0  0
    1.7400   14.1490   -3.3520 C   0  0  0  0  0  0  0  0  0  0  0  0
    1.9690   15.1040   -2.1770 C   0  0  2  0  0  0  0  0  0  0  0  0
    0.9460   16.2830   -2.3120 C   0  0  0  0  0  0  0  0  0  0  0  0
    5.2702   17.4230   -1.5523 H   0  0  0  0  0  0  0  0  0  0  0  0
    5.9135   16.7069   -3.0689 H   0  0  0  0  0  0  0  0  0  0  0  0
    5.2745   18.3856   -3.0689 H   0  0  0  0  0  0  0  0  0  0  0  0
    3.7883   16.4742   -4.0204 H   0  0  0  0  0  0  0  0  0  0  0  0
    3.0018   18.7814   -3.5751 H   0  0  0  0  0  0  0  0  0  0  0  0
    1.7369   17.5007   -3.2543 H   0  0  0  0  0  0  0  0  0  0  0  0
    2.1660   17.6776   -0.8513 H   0  0  0  0  0  0  0  0  0  0  0  0
    3.3808   18.9836   -1.1771 H   0  0  0  0  0  0  0  0  0  0  0  0
    1.5494   19.7837   -2.5557 H   0  0  0  0  0  0  0  0  0  0  0  0
   -0.1214   18.4502    1.2034 H   0  0  0  0  0  0  0  0  0  0  0  0
   -1.1834   17.7879   -0.0850 H   0  0  0  0  0  0  0  0  0  0  0  0
    0.5723   17.4084   -0.0850 H   0  0  0  0  0  0  0  0  0  0  0  0
   -1.6484   20.5408   -0.2188 H   0  0  0  0  0  0  0  0  0  0  0  0
   -0.7930   21.0507   -1.7137 H   0  0  0  0  0  0  0  0  0  0  0  0
   -1.7871   19.5546   -1.7137 H   0  0  0  0  0  0  0  0  0  0  0  0
    4.1442   14.9687   -2.3379 H   0  0  0  0  0  0  0  0  0  0  0  0
    4.4148   15.8690   -0.1125 H   0  0  0  0  0  0  0  0  0  0  0  0
    3.3103   17.2211   -0.4413 H   0  0  0  0  0  0  0  0  0  0  0  0
    2.6793   14.8971    1.0980 H   0  0  0  0  0  0  0  0  0  0  0  0
    1.4778   16.0245    0.4741 H   0  0  0  0  0  0  0  0  0  0  0  0
    3.0821   12.9403    0.3774 H   0  0  0  0  0  0  0  0  0  0  0  0
    2.5179   12.2259   -1.1712 H   0  0  0  0  0  0  0  0  0  0  0  0
    3.8462   13.4351   -1.1712 H   0  0  0  0  0  0  0  0  0  0  0  0
   -0.1911   14.6893   -0.6634 H   0  0  0  0  0  0  0  0  0  0  0  0
    0.7344   13.4898    1.4210 H   0  0  0  0  0  0  0  0  0  0  0  0
   -0.9817   13.1835    0.8284 H   0  0  0  0  0  0  0  0  0  0  0  0
    0.3718   11.0686    1.6225 H   0  0  0  0  0  0  0  0  0  0  0  0
    1.3525   11.4416   -2.2776 H   0  0  0  0  0  0  0  0  0  0  0  0
   -1.5718   10.4729   -2.3131 H   0  0  0  0  0  0  0  0  0  0  0  0
   -0.5274   10.8488   -3.7547 H   0  0  0  0  0  0  0  0  0  0  0  0
   -0.7257    8.4166   -3.3511 H   0  0  0  0  0  0  0  0  0  0  0  0
    0.9684    9.0246   -3.1851 H   0  0  0  0  0  0  0  0  0  0  0  0
    0.5282    7.4728   -1.4078 H   0  0  0  0  0  0  0  0  0  0  0  0
   -1.8720    8.8960   -1.3530 H   0  0  0  0  0  0  0  0  0  0  0  0
    3.0084    9.1557    0.1442 H   0  0  0  0  0  0  0  0  0  0  0  0
    2.5454    8.2897   -1.3599 H   0  0  0  0  0  0  0  0  0  0  0  0
    2.6798   10.0810   -1.3599 H   0  0  0  0  0  0  0  0  0  0  0  0
    0.9319    9.4862    1.8046 H   0  0  0  0  0  0  0  0  0  0  0  0
   -0.2245    8.2631    1.1776 H   0  0  0  0  0  0  0  0  0  0  0  0
    1.5379    7.9157    1.1776 H   0  0  0  0  0  0  0  0  0  0  0  0
   -2.0305   13.0207   -0.8495 H   0  0  0  0  0  0  0  0  0  0  0  0
   -2.0100   13.9191   -2.4049 H   0  0  0  0  0  0  0  0  0  0  0  0
   -2.1068   12.1254   -2.4049 H   0  0  0  0  0  0  0  0  0  0  0  0
    0.2813   12.7371   -4.0517 H   0  0  0  0  0  0  0  0  0  0  0  0
   -0.3589   14.3775   -3.4743 H   0  0  0  0  0  0  0  0  0  0  0  0
    2.4849   13.3407   -3.3093 H   0  0  0  0  0  0  0  0  0  0  0  0
    1.8403   14.7157   -4.2894 H   0  0  0  0  0  0  0  0  0  0  0  0
    0.6480   16.6264   -1.3104 H   0  0  0  0  0  0  0  0  0  0  0  0
    1.4142   17.1138   -2.8602 H   0  0  0  0  0  0  0  0  0  0  0  0
    0.0575   15.9366   -2.8602 H   0  0  0  0  0  0  0  0  0  0  0  0
  1  2  1  0
  2  3  1  0
  3  4  1  0
  4  5  1  0
  5  6  1  0
  6  7  1  0
  7  8  1  0
  7  9  1  0
  2 10  1  0
 10 11  1  0
 11 12  1  0
 12 13  1  0
 13 14  1  6
 13 15  1  0
 15 16  1  0
 16 17  1  0
 17 18  2  0
 18 19  1  0
 19 20  1  0
 20 21  1  0
 21 22  1  0
 22 23  1  0
 22 24  1  0
 24 25  1  0
 24 26  1  0
 19 27  1  0
 27 28  1  6
 27 29  1  0
 29 30  1  0
 30 31  1  0
 31 32  1  1
  7  5  1  0
 31 10  1  0
 31 13  1  0
 27 15  1  0
 24 18  1  0
  1 33  1  0
  1 34  1  0
  1 35  1  0
  2 36  1  6
  3 37  1  0
  3 38  1  0
  4 39  1  0
  4 40  1  0
  5 41  1  6
  8 42  1  0
  8 43  1  0
  8 44  1  0
  9 45  1  0
  9 46  1  0
  9 47  1  0
 10 48  1  1
 11 49  1  0
 11 50  1  0
 12 51  1  0
 12 52  1  0
 14 53  1  0
 14 54  1  0
 14 55  1  0
 15 56  1  1
 16 57  1  0
 16 58  1  0
 17 59  1  0
 19 60  1  6
 20 61  1  0
 20 62  1  0
 21 63  1  0
 21 64  1  0
 22 65  1  6
 23 66  1  0
 25 67  1  0
 25 68  1  0
 25 69  1  0
 26 70  1  0
 26 71  1  0
 26 72  1  0
 28 73  1  0
 28 74  1  0
 28 75  1  0
 29 76  1  0
 29 77  1  0
 30 78  1  0
 30 79  1  0
 32 80  1  0
 32 81  1  0
 32 82  1  0
M  END
>  <meeko>  (13) 
{"is_sidechain": [false], "intermolecular_energy": 2.731, "internal_energy": -0.839}

$$$$
EPH_relaxed_0001_pdb2pqr_Repair_138_r2_0001_out
     RDKit          3D

 82 86  0  0  0  0  0  0  0  0999 V2000
   -5.0360    5.9900   -2.0230 C   0  0  0  0  0  0  0  0  0  0  0  0
   -5.4220    7.4690   -1.9330 C   0  0  2  0  0  0  0  0  0  0  0  0
   -5.2230    8.0360   -0.5130 C   0  0  0  0  0  0  0  0  0  0  0  0
   -4.1390    9.1150   -0.4270 C   0  0  0  0  0  0  0  0  0  0  0  0
   -2.8000    8.5900   -0.8500 C   0  0  2  0  0  0  0  0  0  0  0  0
   -1.7310    8.8750    0.0620 O   0  0  0  0  0  0  0  0  0  0  0  0
   -1.6360    9.4840   -1.2360 C   0  0  0  0  0  0  0  0  0  0  0  0
   -1.7580   10.9750   -1.2190 C   0  0  0  0  0  0  0  0  0  0  0  0
   -0.5490    8.9120   -2.0910 C   0  0  0  0  0  0  0  0  0  0  0  0
   -6.8700    7.6560   -2.3700 C   0  0  1  0  0  0  0  0  0  0  0  0
   -7.1860    6.9420   -3.7120 C   0  0  0  0  0  0  0  0  0  0  0  0
   -8.6470    6.4330   -3.6140 C   0  0  0  0  0  0  0  0  0  0  0  0
   -9.2280    7.1490   -2.3720 C   0  0  1  0  0  0  0  0  0  0  0  0
   -9.6240    8.5710   -2.8780 C   0  0  0  0  0  0  0  0  0  0  0  0
  -10.4220    6.4350   -1.6590 C   0  0  2  0  0  0  0  0  0  0  0  0
  -11.6900    6.2720   -2.5160 C   0  0  0  0  0  0  0  0  0  0  0  0
  -12.6710    7.3930   -2.4250 C   0  0  0  0  0  0  0  0  0  0  0  0
  -12.6800    8.3490   -1.4770 C   0  0  0  0  0  0  0  0  0  0  0  0
  -11.6910    8.3060   -0.3050 C   0  0  1  0  0  0  0  0  0  0  0  0
  -12.4480    8.5750    1.0220 C   0  0  0  0  0  0  0  0  0  0  0  0
  -13.2510    9.8720    0.9840 C   0  0  0  0  0  0  0  0  0  0  0  0
  -14.2630    9.8530   -0.1580 C   0  0  2  0  0  0  0  0  0  0  0  0
  -15.2510    8.8550    0.1170 O   0  0  0  0  0  0  0  0  0  0  0  0
  -13.6170    9.5800   -1.5450 C   0  0  0  0  0  0  0  0  0  0  0  0
  -12.7770   10.8070   -1.9790 C   0  0  0  0  0  0  0  0  0  0  0  0
  -14.7610    9.4460   -2.5870 C   0  0  0  0  0  0  0  0  0  0  0  0
  -10.7640    7.0170   -0.2280 C   0  0  1  0  0  0  0  0  0  0  0  0
  -11.4950    5.8820    0.5520 C   0  0  0  0  0  0  0  0  0  0  0  0
   -9.4700    7.3630    0.6010 C   0  0  0  0  0  0  0  0  0  0  0  0
   -8.2810    7.9540   -0.1800 C   0  0  0  0  0  0  0  0  0  0  0  0
   -7.9730    7.1170   -1.4250 C   0  0  2  0  0  0  0  0  0  0  0  0
   -7.5490    5.6860   -0.9470 C   0  0  0  0  0  0  0  0  0  0  0  0
   -4.9282    5.5769   -1.0093 H   0  0  0  0  0  0  0  0  0  0  0  0
   -5.8203    5.4385   -2.5622 H   0  0  0  0  0  0  0  0  0  0  0  0
   -4.0822    5.8921   -2.5622 H   0  0  0  0  0  0  0  0  0  0  0  0
   -4.7552    8.0263   -2.6074 H   0  0  0  0  0  0  0  0  0  0  0  0
   -6.1750    8.4726   -0.1769 H   0  0  0  0  0  0  0  0  0  0  0  0
   -4.8963    7.2007    0.1238 H   0  0  0  0  0  0  0  0  0  0  0  0
   -4.4170    9.9529   -1.0833 H   0  0  0  0  0  0  0  0  0  0  0  0
   -4.0637    9.4430    0.6202 H   0  0  0  0  0  0  0  0  0  0  0  0
   -3.2680    7.7301   -1.3516 H   0  0  0  0  0  0  0  0  0  0  0  0
   -1.7869   11.3287   -0.1778 H   0  0  0  0  0  0  0  0  0  0  0  0
   -0.8932   11.4195   -1.7333 H   0  0  0  0  0  0  0  0  0  0  0  0
   -2.6835   11.2731   -1.7333 H   0  0  0  0  0  0  0  0  0  0  0  0
    0.2416    8.4959   -1.4493 H   0  0  0  0  0  0  0  0  0  0  0  0
   -0.9631    8.1150   -2.7261 H   0  0  0  0  0  0  0  0  0  0  0  0
   -0.1266    9.7046   -2.7261 H   0  0  0  0  0  0  0  0  0  0  0  0
   -6.9109    8.7546   -2.4082 H   0  0  0  0  0  0  0  0  0  0  0  0
   -7.0862    7.6481   -4.5495 H   0  0  0  0  0  0  0  0  0  0  0  0
   -6.4889    6.1101   -3.8907 H   0  0  0  0  0  0  0  0  0  0  0  0
   -9.2134    6.7024   -4.5177 H   0  0  0  0  0  0  0  0  0  0  0  0
   -8.7019    5.3378   -3.5275 H   0  0  0  0  0  0  0  0  0  0  0  0
   -9.8073    9.2291   -2.0158 H   0  0  0  0  0  0  0  0  0  0  0  0
   -8.8067    8.9841   -3.4874 H   0  0  0  0  0  0  0  0  0  0  0  0
  -10.5372    8.5022   -3.4874 H   0  0  0  0  0  0  0  0  0  0  0  0
  -10.0312    5.4183   -1.5055 H   0  0  0  0  0  0  0  0  0  0  0  0
  -11.3797    6.1768   -3.5670 H   0  0  0  0  0  0  0  0  0  0  0  0
  -12.2077    5.3830   -2.1264 H   0  0  0  0  0  0  0  0  0  0  0  0
  -13.4525    7.4423   -3.1975 H   0  0  0  0  0  0  0  0  0  0  0  0
  -10.9649    9.1113   -0.4899 H   0  0  0  0  0  0  0  0  0  0  0  0
  -13.1373    7.7388    1.2107 H   0  0  0  0  0  0  0  0  0  0  0  0
  -11.6982    8.6693    1.8213 H   0  0  0  0  0  0  0  0  0  0  0  0
  -13.7862    9.9922    1.9375 H   0  0  0  0  0  0  0  0  0  0  0  0
  -12.5570   10.7104    0.8245 H   0  0  0  0  0  0  0  0  0  0  0  0
  -14.7149   10.8543   -0.2140 H   0  0  0  0  0  0  0  0  0  0  0  0
  -16.0680    9.1150   -0.3410 H   0  0  0  0  0  0  0  0  0  0  0  0
  -12.4140   11.3372   -1.0862 H   0  0  0  0  0  0  0  0  0  0  0  0
  -11.9191   10.4702   -2.5795 H   0  0  0  0  0  0  0  0  0  0  0  0
  -13.4013   11.4849   -2.5795 H   0  0  0  0  0  0  0  0  0  0  0  0
  -15.7221    9.3334   -2.0639 H   0  0  0  0  0  0  0  0  0  0  0  0
  -14.7900   10.3469   -3.2175 H   0  0  0  0  0  0  0  0  0  0  0  0
  -14.5811    8.5628   -3.2175 H   0  0  0  0  0  0  0  0  0  0  0  0
  -11.3860    6.0513    1.6334 H   0  0  0  0  0  0  0  0  0  0  0  0
  -12.5625    5.8833    0.2864 H   0  0  0  0  0  0  0  0  0  0  0  0
  -11.0523    4.9107    0.2864 H   0  0  0  0  0  0  0  0  0  0  0  0
   -9.7553    8.0917    1.3741 H   0  0  0  0  0  0  0  0  0  0  0  0
   -9.1093    6.3981    0.9868 H   0  0  0  0  0  0  0  0  0  0  0  0
   -8.5277    8.9806   -0.4885 H   0  0  0  0  0  0  0  0  0  0  0  0
   -7.3958    7.9505    0.4730 H   0  0  0  0  0  0  0  0  0  0  0  0
   -7.5397    5.6545    0.1525 H   0  0  0  0  0  0  0  0  0  0  0  0
   -8.2660    4.9444   -1.3290 H   0  0  0  0  0  0  0  0  0  0  0  0
   -6.5437    5.4547   -1.3290 H   0  0  0  0  0  0  0  0  0  0  0  0
  1  2  1  0
  2  3  1  0
  3  4  1  0
  4  5  1  0
  5  6  1  0
  6  7  1  0
  7  8  1  0
  7  9  1  0
  2 10  1  0
 10 11  1  0
 11 12  1  0
 12 13  1  0
 13 14  1  6
 13 15  1  0
 15 16  1  0
 16 17  1  0
 17 18  2  0
 18 19  1  0
 19 20  1  0
 20 21  1  0
 21 22  1  0
 22 23  1  0
 22 24  1  0
 24 25  1  0
 24 26  1  0
 19 27  1  0
 27 28  1  1
 27 29  1  0
 29 30  1  0
 30 31  1  0
 31 32  1  1
  7  5  1  0
 31 10  1  0
 31 13  1  0
 27 15  1  0
 24 18  1  0
  1 33  1  0
  1 34  1  0
  1 35  1  0
  2 36  1  6
  3 37  1  0
  3 38  1  0
  4 39  1  0
  4 40  1  0
  5 41  1  6
  8 42  1  0
  8 43  1  0
  8 44  1  0
  9 45  1  0
  9 46  1  0
  9 47  1  0
 10 48  1  6
 11 49  1  0
 11 50  1  0
 12 51  1  0
 12 52  1  0
 14 53  1  0
 14 54  1  0
 14 55  1  0
 15 56  1  1
 16 57  1  0
 16 58  1  0
 17 59  1  0
 19 60  1  6
 20 61  1  0
 20 62  1  0
 21 63  1  0
 21 64  1  0
 22 65  1  6
 23 66  1  0
 25 67  1  0
 25 68  1  0
 25 69  1  0
 26 70  1  0
 26 71  1  0
 26 72  1  0
 28 73  1  0
 28 74  1  0
 28 75  1  0
 29 76  1  0
 29 77  1  0
 30 78  1  0
 30 79  1  0
 32 80  1  0
 32 81  1  0
 32 82  1  0
M  END
>  <meeko>  (14) 
{"is_sidechain": [false], "intermolecular_energy": 2.731, "internal_energy": -0.839}

$$$$
EPH_relaxed_0001_pdb2pqr_Repair_138_r2_0001_out
     RDKit          3D

 82 86  0  0  0  0  0  0  0  0999 V2000
   -0.2620   10.3360   -2.1750 C   0  0  0  0  0  0  0  0  0  0  0  0
    0.6920   10.1970   -0.9850 C   0  0  2  0  0  0  0  0  0  0  0  0
   -0.0640   10.0640    0.3530 C   0  0  0  0  0  0  0  0  0  0  0  0
    0.7170   10.5980    1.5560 C   0  0  0  0  0  0  0  0  0  0  0  0
   -0.0470   11.6610    2.2860 C   0  0  2  0  0  0  0  0  0  0  0  0
    0.5190   12.9750    2.1930 O   0  0  0  0  0  0  0  0  0  0  0  0
    0.4890   12.3890    3.5040 C   0  0  0  0  0  0  0  0  0  0  0  0
    1.8420   12.0820    4.0650 C   0  0  0  0  0  0  0  0  0  0  0  0
   -0.4870   13.0420    4.4340 C   0  0  0  0  0  0  0  0  0  0  0  0
    1.6360   11.3920   -0.9330 C   0  0  1  0  0  0  0  0  0  0  0  0
    3.0040   11.1030   -1.6070 C   0  0  0  0  0  0  0  0  0  0  0  0
    3.4620   12.4250   -2.2750 C   0  0  0  0  0  0  0  0  0  0  0  0
    2.5210   13.5040   -1.6900 C   0  0  1  0  0  0  0  0  0  0  0  0
    3.1270   13.8520   -0.2950 C   0  0  0  0  0  0  0  0  0  0  0  0
    2.3100   14.7830   -2.5640 C   0  0  2  0  0  0  0  0  0  0  0  0
    3.5790   15.6160   -2.8190 C   0  0  0  0  0  0  0  0  0  0  0  0
    3.8510   16.6870   -1.8160 C   0  0  0  0  0  0  0  0  0  0  0  0
    2.9680   17.1590   -0.9160 C   0  0  0  0  0  0  0  0  0  0  0  0
    1.5120   16.6750   -0.9130 C   0  0  1  0  0  0  0  0  0  0  0  0
    0.5610   17.8950   -0.7950 C   0  0  0  0  0  0  0  0  0  0  0  0
    0.8860   18.7760    0.4080 C   0  0  0  0  0  0  0  0  0  0  0  0
    2.3240   19.2850    0.3390 C   0  0  2  0  0  0  0  0  0  0  0  0
    2.4440   20.1780   -0.7730 O   0  0  0  0  0  0  0  0  0  0  0  0
    3.3720   18.1440    0.2080 C   0  0  0  0  0  0  0  0  0  0  0  0
    3.4520   17.3560    1.5390 C   0  0  0  0  0  0  0  0  0  0  0  0
    4.7660   18.7980    0.0060 C   0  0  0  0  0  0  0  0  0  0  0  0
    1.1040   15.6960   -2.0960 C   0  0  1  0  0  0  0  0  0  0  0  0
    0.6620   16.5230   -3.3420 C   0  0  0  0  0  0  0  0  0  0  0  0
   -0.1490   14.8520   -1.6560 C   0  0  0  0  0  0  0  0  0  0  0  0
    0.1280   13.5380   -0.9010 C   0  0  0  0  0  0  0  0  0  0  0  0
    1.1740   12.6940   -1.6350 C   0  0  2  0  0  0  0  0  0  0  0  0
    0.5830   12.3100   -3.0340 C   0  0  0  0  0  0  0  0  0  0  0  0
   -1.2878   10.4855   -1.8071 H   0  0  0  0  0  0  0  0  0  0  0  0
    0.0378   11.1999   -2.7863 H   0  0  0  0  0  0  0  0  0  0  0  0
   -0.2212    9.4224   -2.7863 H   0  0  0  0  0  0  0  0  0  0  0  0
    1.2703    9.2727   -1.1309 H   0  0  0  0  0  0  0  0  0  0  0  0
   -1.0080   10.6233    0.2757 H   0  0  0  0  0  0  0  0  0  0  0  0
   -0.2259    8.9898    0.5257 H   0  0  0  0  0  0  0  0  0  0  0  0
    0.9195    9.7665    2.2470 H   0  0  0  0  0  0  0  0  0  0  0  0
    1.6537   11.0413    1.1871 H   0  0  0  0  0  0  0  0  0  0  0  0
   -0.9978   11.1415    2.0962 H   0  0  0  0  0  0  0  0  0  0  0  0
    1.7944   12.0928    5.1639 H   0  0  0  0  0  0  0  0  0  0  0  0
    2.1643   11.0879    3.7217 H   0  0  0  0  0  0  0  0  0  0  0  0
    2.5618   12.8396    3.7217 H   0  0  0  0  0  0  0  0  0  0  0  0
   -0.1908   12.8438    5.4747 H   0  0  0  0  0  0  0  0  0  0  0  0
   -0.4940   14.1273    4.2551 H   0  0  0  0  0  0  0  0  0  0  0  0
   -1.4929   12.6344    4.2551 H   0  0  0  0  0  0  0  0  0  0  0  0
    1.6789   11.5459    0.1553 H   0  0  0  0  0  0  0  0  0  0  0  0
    3.7386   10.7857   -0.8522 H   0  0  0  0  0  0  0  0  0  0  0  0
    2.9159   10.2956   -2.3489 H   0  0  0  0  0  0  0  0  0  0  0  0
    4.5097   12.6451   -2.0224 H   0  0  0  0  0  0  0  0  0  0  0  0
    3.4106   12.3774   -3.3728 H   0  0  0  0  0  0  0  0  0  0  0  0
    2.4653   13.4720    0.4973 H   0  0  0  0  0  0  0  0  0  0  0  0
    4.1187   13.3858   -0.1994 H   0  0  0  0  0  0  0  0  0  0  0  0
    3.2242   14.9435   -0.1994 H   0  0  0  0  0  0  0  0  0  0  0  0
    2.0300   14.3586   -3.5395 H   0  0  0  0  0  0  0  0  0  0  0  0
    4.4395   14.9308   -2.8264 H   0  0  0  0  0  0  0  0  0  0  0  0
    3.4174   16.1309   -3.7775 H   0  0  0  0  0  0  0  0  0  0  0  0
    4.8586   17.1283   -1.8117 H   0  0  0  0  0  0  0  0  0  0  0  0
    1.4073   16.0326   -0.0262 H   0  0  0  0  0  0  0  0  0  0  0  0
    0.6488   18.5003   -1.7093 H   0  0  0  0  0  0  0  0  0  0  0  0
   -0.4607   17.5102   -0.6608 H   0  0  0  0  0  0  0  0  0  0  0  0
    0.2000   19.6358    0.4204 H   0  0  0  0  0  0  0  0  0  0  0  0
    0.7690   18.1774    1.3234 H   0  0  0  0  0  0  0  0  0  0  0  0
    2.5376   19.8001    1.2872 H   0  0  0  0  0  0  0  0  0  0  0  0
    3.3880   20.3780   -0.8890 H   0  0  0  0  0  0  0  0  0  0  0  0
    3.3809   18.0561    2.3844 H   0  0  0  0  0  0  0  0  0  0  0  0
    2.6224   16.6354    1.5889 H   0  0  0  0  0  0  0  0  0  0  0  0
    4.4095   16.8168    1.5889 H   0  0  0  0  0  0  0  0  0  0  0  0
    5.2173   19.0097    0.9866 H   0  0  0  0  0  0  0  0  0  0  0  0
    5.4155   18.1107   -0.5558 H   0  0  0  0  0  0  0  0  0  0  0  0
    4.6526   19.7369   -0.5558 H   0  0  0  0  0  0  0  0  0  0  0  0
    0.1675   17.4483   -3.0113 H   0  0  0  0  0  0  0  0  0  0  0  0
    1.5455   16.7754   -3.9468 H   0  0  0  0  0  0  0  0  0  0  0  0
   -0.0387   15.9287   -3.9468 H   0  0  0  0  0  0  0  0  0  0  0  0
   -0.7653   15.4873   -1.0029 H   0  0  0  0  0  0  0  0  0  0  0  0
   -0.6345   14.5473   -2.5949 H   0  0  0  0  0  0  0  0  0  0  0  0
    0.4990   13.7737    0.1074 H   0  0  0  0  0  0  0  0  0  0  0  0
   -0.8080   12.9632   -0.8423 H   0  0  0  0  0  0  0  0  0  0  0  0
   -0.3320   11.7155   -2.8949 H   0  0  0  0  0  0  0  0  0  0  0  0
    0.3436   13.2256   -3.5948 H   0  0  0  0  0  0  0  0  0  0  0  0
    1.3223   11.7193   -3.5948 H   0  0  0  0  0  0  0  0  0  0  0  0
  1  2  1  0
  2  3  1  0
  3  4  1  0
  4  5  1  0
  5  6  1  0
  6  7  1  0
  7  8  1  0
  7  9  1  0
  2 10  1  0
 10 11  1  0
 11 12  1  0
 12 13  1  0
 13 14  1  1
 13 15  1  0
 15 16  1  0
 16 17  1  0
 17 18  2  0
 18 19  1  0
 19 20  1  0
 20 21  1  0
 21 22  1  0
 22 23  1  0
 22 24  1  0
 24 25  1  0
 24 26  1  0
 19 27  1  0
 27 28  1  6
 27 29  1  0
 29 30  1  0
 30 31  1  0
 31 32  1  6
  7  5  1  0
 31 10  1  0
 31 13  1  0
 27 15  1  0
 24 18  1  0
  1 33  1  0
  1 34  1  0
  1 35  1  0
  2 36  1  6
  3 37  1  0
  3 38  1  0
  4 39  1  0
  4 40  1  0
  5 41  1  1
  8 42  1  0
  8 43  1  0
  8 44  1  0
  9 45  1  0
  9 46  1  0
  9 47  1  0
 10 48  1  1
 11 49  1  0
 11 50  1  0
 12 51  1  0
 12 52  1  0
 14 53  1  0
 14 54  1  0
 14 55  1  0
 15 56  1  6
 16 57  1  0
 16 58  1  0
 17 59  1  0
 19 60  1  1
 20 61  1  0
 20 62  1  0
 21 63  1  0
 21 64  1  0
 22 65  1  1
 23 66  1  0
 25 67  1  0
 25 68  1  0
 25 69  1  0
 26 70  1  0
 26 71  1  0
 26 72  1  0
 28 73  1  0
 28 74  1  0
 28 75  1  0
 29 76  1  0
 29 77  1  0
 30 78  1  0
 30 79  1  0
 32 80  1  0
 32 81  1  0
 32 82  1  0
M  END
>  <meeko>  (15) 
{"is_sidechain": [false], "intermolecular_energy": 2.731, "internal_energy": -0.839}

$$$$
EPH_relaxed_0001_pdb2pqr_Repair_138_r2_0001_out
     RDKit          3D

 82 86  0  0  0  0  0  0  0  0999 V2000
   -0.1710    8.4430   -3.3600 C   0  0  0  0  0  0  0  0  0  0  0  0
   -0.6740    8.8620   -1.9760 C   0  0  2  0  0  0  0  0  0  0  0  0
   -2.0200    8.1960   -1.6210 C   0  0  0  0  0  0  0  0  0  0  0  0
   -2.6090    7.3560   -2.7580 C   0  0  0  0  0  0  0  0  0  0  0  0
   -4.0970    7.5100   -2.8470 C   0  0  2  0  0  0  0  0  0  0  0  0
   -4.8030    7.2150   -1.6340 O   0  0  0  0  0  0  0  0  0  0  0  0
   -5.0650    6.3460   -2.7480 C   0  0  0  0  0  0  0  0  0  0  0  0
   -4.5820    4.9430   -2.5520 C   0  0  0  0  0  0  0  0  0  0  0  0
   -6.4370    6.5050   -3.3260 C   0  0  0  0  0  0  0  0  0  0  0  0
   -0.8100   10.3780   -1.9090 C   0  0  1  0  0  0  0  0  0  0  0  0
   -2.1320   10.8310   -1.2350 C   0  0  0  0  0  0  0  0  0  0  0  0
   -1.8130   12.1290   -0.4490 C   0  0  0  0  0  0  0  0  0  0  0  0
   -0.4180   12.5600   -0.9600 C   0  0  1  0  0  0  0  0  0  0  0  0
   -0.6950   13.2950   -2.3090 C   0  0  0  0  0  0  0  0  0  0  0  0
    0.4320   13.4410    0.0130 C   0  0  2  0  0  0  0  0  0  0  0  0
   -0.1830   14.8080    0.3620 C   0  0  0  0  0  0  0  0  0  0  0  0
    0.2040   15.9300   -0.5430 C   0  0  0  0  0  0  0  0  0  0  0  0
    1.2280   15.9130   -1.4160 C   0  0  0  0  0  0  0  0  0  0  0  0
    2.1820   14.7140   -1.4890 C   0  0  1  0  0  0  0  0  0  0  0  0
    3.6480   15.2200   -1.5230 C   0  0  0  0  0  0  0  0  0  0  0  0
    3.8930   16.2290   -2.6410 C   0  0  0  0  0  0  0  0  0  0  0  0
    2.9660   17.4330   -2.5020 C   0  0  2  0  0  0  0  0  0  0  0  0
    3.3210   18.1530   -1.3170 O   0  0  0  0  0  0  0  0  0  0  0  0
    1.4620   17.0460   -2.4460 C   0  0  0  0  0  0  0  0  0  0  0  0
    1.0030   16.5410   -3.8370 C   0  0  0  0  0  0  0  0  0  0  0  0
    0.6460   18.3360   -2.1630 C   0  0  0  0  0  0  0  0  0  0  0  0
    1.9530   13.5790   -0.4000 C   0  0  1  0  0  0  0  0  0  0  0  0
    2.7380   13.9260    0.9020 C   0  0  0  0  0  0  0  0  0  0  0  0
    2.5540   12.2260   -0.9340 C   0  0  0  0  0  0  0  0  0  0  0  0
    1.6260   11.3440   -1.7910 C   0  0  0  0  0  0  0  0  0  0  0  0
    0.2670   11.1540   -1.1090 C   0  0  2  0  0  0  0  0  0  0  0  0
    0.5110   10.3970    0.2410 C   0  0  0  0  0  0  0  0  0  0  0  0
    0.6698    7.7426   -3.2480 H   0  0  0  0  0  0  0  0  0  0  0  0
   -0.9855    7.9526   -3.9132 H   0  0  0  0  0  0  0  0  0  0  0  0
    0.1641    9.3328   -3.9132 H   0  0  0  0  0  0  0  0  0  0  0  0
    0.0676    8.5225   -1.2379 H   0  0  0  0  0  0  0  0  0  0  0  0
   -1.8651    7.5421   -0.7502 H   0  0  0  0  0  0  0  0  0  0  0  0
   -2.7354    9.0058   -1.4152 H   0  0  0  0  0  0  0  0  0  0  0  0
   -2.1597    7.6781   -3.7090 H   0  0  0  0  0  0  0  0  0  0  0  0
   -2.3851    6.2984   -2.5547 H   0  0  0  0  0  0  0  0  0  0  0  0
   -3.9932    8.3231   -3.5805 H   0  0  0  0  0  0  0  0  0  0  0  0
   -4.5079    4.7277   -1.4758 H   0  0  0  0  0  0  0  0  0  0  0  0
   -5.2908    4.2427   -3.0181 H   0  0  0  0  0  0  0  0  0  0  0  0
   -3.5923    4.8274   -3.0181 H   0  0  0  0  0  0  0  0  0  0  0  0
   -7.1707    6.5900   -2.5108 H   0  0  0  0  0  0  0  0  0  0  0  0
   -6.4708    7.4131   -3.9459 H   0  0  0  0  0  0  0  0  0  0  0  0
   -6.6775    5.6287   -3.9459 H   0  0  0  0  0  0  0  0  0  0  0  0
   -0.7298   10.6170   -2.9797 H   0  0  0  0  0  0  0  0  0  0  0  0
   -2.8978   11.0297   -1.9992 H   0  0  0  0  0  0  0  0  0  0  0  0
   -2.5212   10.0499   -0.5653 H   0  0  0  0  0  0  0  0  0  0  0  0
   -2.5619   12.9061   -0.6618 H   0  0  0  0  0  0  0  0  0  0  0  0
   -1.8291   11.9727    0.6397 H   0  0  0  0  0  0  0  0  0  0  0  0
   -1.0761   14.3063   -2.1040 H   0  0  0  0  0  0  0  0  0  0  0  0
    0.2384   13.3651   -2.8868 H   0  0  0  0  0  0  0  0  0  0  0  0
   -1.4425   12.7316   -2.8868 H   0  0  0  0  0  0  0  0  0  0  0  0
    0.4061   12.8564    0.9444 H   0  0  0  0  0  0  0  0  0  0  0  0
   -1.2778   14.7067    0.3291 H   0  0  0  0  0  0  0  0  0  0  0  0
    0.2049   15.0715    1.3570 H   0  0  0  0  0  0  0  0  0  0  0  0
   -0.3989   16.8487   -0.4921 H   0  0  0  0  0  0  0  0  0  0  0  0
    1.9453   14.1934   -2.4287 H   0  0  0  0  0  0  0  0  0  0  0  0
    3.8783   15.6983   -0.5596 H   0  0  0  0  0  0  0  0  0  0  0  0
    4.2968   14.3514   -1.7091 H   0  0  0  0  0  0  0  0  0  0  0  0
    4.9373   16.5715   -2.5943 H   0  0  0  0  0  0  0  0  0  0  0  0
    3.6912   15.7401   -3.6055 H   0  0  0  0  0  0  0  0  0  0  0  0
    3.0965   18.0547   -3.4000 H   0  0  0  0  0  0  0  0  0  0  0  0
    3.9410   18.8570   -1.5750 H   0  0  0  0  0  0  0  0  0  0  0  0
    0.2681   15.7325   -3.7094 H   0  0  0  0  0  0  0  0  0  0  0  0
    0.5429   17.3701   -4.3946 H   0  0  0  0  0  0  0  0  0  0  0  0
    1.8721   16.1619   -4.3946 H   0  0  0  0  0  0  0  0  0  0  0  0
    0.5543   18.4809   -1.0764 H   0  0  0  0  0  0  0  0  0  0  0  0
    1.1618   19.2007   -2.6060 H   0  0  0  0  0  0  0  0  0  0  0  0
   -0.3563   18.2404   -2.6060 H   0  0  0  0  0  0  0  0  0  0  0  0
    2.1306   13.6575    1.7789 H   0  0  0  0  0  0  0  0  0  0  0  0
    3.6817   13.3612    0.9227 H   0  0  0  0  0  0  0  0  0  0  0  0
    2.9554   15.0041    0.9227 H   0  0  0  0  0  0  0  0  0  0  0  0
    3.4362   12.4713   -1.5435 H   0  0  0  0  0  0  0  0  0  0  0  0
    2.7667   11.6304   -0.0340 H   0  0  0  0  0  0  0  0  0  0  0  0
    1.4740   11.8250   -2.7685 H   0  0  0  0  0  0  0  0  0  0  0  0
    2.0966   10.3577   -1.9165 H   0  0  0  0  0  0  0  0  0  0  0  0
    0.2940   11.0703    1.0833 H   0  0  0  0  0  0  0  0  0  0  0  0
   -0.1497    9.5191    0.2937 H   0  0  0  0  0  0  0  0  0  0  0  0
    1.5600   10.0702    0.2937 H   0  0  0  0  0  0  0  0  0  0  0  0
  1  2  1  0
  2  3  1  0
  3  4  1  0
  4  5  1  0
  5  6  1  0
  6  7  1  0
  7  8  1  0
  7  9  1  0
  2 10  1  0
 10 11  1  0
 11 12  1  0
 12 13  1  0
 13 14  1  6
 13 15  1  0
 15 16  1  0
 16 17  1  0
 17 18  2  0
 18 19  1  0
 19 20  1  0
 20 21  1  0
 21 22  1  0
 22 23  1  0
 22 24  1  0
 24 25  1  0
 24 26  1  0
 19 27  1  0
 27 28  1  1
 27 29  1  0
 29 30  1  0
 30 31  1  0
 31 32  1  1
  7  5  1  0
 31 10  1  0
 31 13  1  0
 27 15  1  0
 24 18  1  0
  1 33  1  0
  1 34  1  0
  1 35  1  0
  2 36  1  1
  3 37  1  0
  3 38  1  0
  4 39  1  0
  4 40  1  0
  5 41  1  6
  8 42  1  0
  8 43  1  0
  8 44  1  0
  9 45  1  0
  9 46  1  0
  9 47  1  0
 10 48  1  6
 11 49  1  0
 11 50  1  0
 12 51  1  0
 12 52  1  0
 14 53  1  0
 14 54  1  0
 14 55  1  0
 15 56  1  1
 16 57  1  0
 16 58  1  0
 17 59  1  0
 19 60  1  6
 20 61  1  0
 20 62  1  0
 21 63  1  0
 21 64  1  0
 22 65  1  6
 23 66  1  0
 25 67  1  0
 25 68  1  0
 25 69  1  0
 26 70  1  0
 26 71  1  0
 26 72  1  0
 28 73  1  0
 28 74  1  0
 28 75  1  0
 29 76  1  0
 29 77  1  0
 30 78  1  0
 30 79  1  0
 32 80  1  0
 32 81  1  0
 32 82  1  0
M  END
>  <meeko>  (16) 
{"is_sidechain": [false], "intermolecular_energy": 2.731, "internal_energy": -0.839}

$$$$
EPH_relaxed_0001_pdb2pqr_Repair_138_r2_0001_out
     RDKit          3D

 82 86  0  0  0  0  0  0  0  0999 V2000
   -0.9170    8.2460   -1.9710 C   0  0  0  0  0  0  0  0  0  0  0  0
   -0.4460    8.7660   -0.6100 C   0  0  2  0  0  0  0  0  0  0  0  0
   -1.6010    9.3770    0.2090 C   0  0  0  0  0  0  0  0  0  0  0  0
   -1.3560   10.8290    0.6280 C   0  0  0  0  0  0  0  0  0  0  0  0
   -0.3660   10.9230    1.7500 C   0  0  2  0  0  0  0  0  0  0  0  0
   -0.6950   11.8860    2.7590 O   0  0  0  0  0  0  0  0  0  0  0  0
    0.4990   12.1430    2.0020 C   0  0  0  0  0  0  0  0  0  0  0  0
    0.4150   13.3540    1.1270 C   0  0  0  0  0  0  0  0  0  0  0  0
    1.7610   11.9760    2.7910 C   0  0  0  0  0  0  0  0  0  0  0  0
    0.6600    9.7970   -0.8010 C   0  0  1  0  0  0  0  0  0  0  0  0
    2.0220    9.1500   -1.1680 C   0  0  0  0  0  0  0  0  0  0  0  0
    2.7330   10.1260   -2.1410 C   0  0  0  0  0  0  0  0  0  0  0  0
    1.9180   11.4370   -2.0430 C   0  0  1  0  0  0  0  0  0  0  0  0
    2.4450   12.1400   -0.7530 C   0  0  0  0  0  0  0  0  0  0  0  0
    1.9820   12.3850   -3.2840 C   0  0  2  0  0  0  0  0  0  0  0  0
    3.3800   12.9380   -3.6120 C   0  0  0  0  0  0  0  0  0  0  0  0
    3.7220   14.2350   -2.9560 C   0  0  0  0  0  0  0  0  0  0  0  0
    2.8450   15.0700   -2.3680 C   0  0  0  0  0  0  0  0  0  0  0  0
    1.3380   14.7850   -2.4090 C   0  0  1  0  0  0  0  0  0  0  0  0
    0.5770   16.0800   -2.7940 C   0  0  0  0  0  0  0  0  0  0  0  0
    0.9240   17.2550   -1.8860 C   0  0  0  0  0  0  0  0  0  0  0  0
    2.4230   17.5450   -1.9170 C   0  0  2  0  0  0  0  0  0  0  0  0
    2.7740   18.0150   -3.2210 O   0  0  0  0  0  0  0  0  0  0  0  0
    3.2930   16.3090   -1.5540 C   0  0  0  0  0  0  0  0  0  0  0  0
    3.1350   15.9850   -0.0480 C   0  0  0  0  0  0  0  0  0  0  0  0
    4.7820   16.6960   -1.7610 C   0  0  0  0  0  0  0  0  0  0  0  0
    0.8930   13.5330   -3.2800 C   0  0  1  0  0  0  0  0  0  0  0  0
    0.6930   13.9620   -4.7660 C   0  0  0  0  0  0  0  0  0  0  0  0
   -0.5090   13.0250   -2.7730 C   0  0  0  0  0  0  0  0  0  0  0  0
   -0.5020   11.9990   -1.6240 C   0  0  0  0  0  0  0  0  0  0  0  0
    0.4650   10.8490   -1.9210 C   0  0  2  0  0  0  0  0  0  0  0  0
   -0.0520   10.1090   -3.2020 C   0  0  0  0  0  0  0  0  0  0  0  0
   -1.6486    7.4383   -1.8217 H   0  0  0  0  0  0  0  0  0  0  0  0
   -1.3860    9.0660   -2.5345 H   0  0  0  0  0  0  0  0  0  0  0  0
   -0.0547    7.8601   -2.5345 H   0  0  0  0  0  0  0  0  0  0  0  0
   -0.0581    7.9065   -0.0436 H   0  0  0  0  0  0  0  0  0  0  0  0
   -2.5161    9.3408   -0.4003 H   0  0  0  0  0  0  0  0  0  0  0  0
   -1.6887    8.7859    1.1325 H   0  0  0  0  0  0  0  0  0  0  0  0
   -0.9695   11.3890   -0.2363 H   0  0  0  0  0  0  0  0  0  0  0  0
   -2.3102   11.2509    0.9765 H   0  0  0  0  0  0  0  0  0  0  0  0
   -0.1243    9.8538    1.6578 H   0  0  0  0  0  0  0  0  0  0  0  0
    0.3525   14.2557    1.7539 H   0  0  0  0  0  0  0  0  0  0  0  0
    1.3114   13.4104    0.4919 H   0  0  0  0  0  0  0  0  0  0  0  0
   -0.4806   13.2861    0.4919 H   0  0  0  0  0  0  0  0  0  0  0  0
    1.5283   12.0068    3.8657 H   0  0  0  0  0  0  0  0  0  0  0  0
    2.2230   11.0089    2.5434 H   0  0  0  0  0  0  0  0  0  0  0  0
    2.4586   12.7897    2.5434 H   0  0  0  0  0  0  0  0  0  0  0  0
    0.6293   10.2860    0.1839 H   0  0  0  0  0  0  0  0  0  0  0  0
    2.6301    9.0078   -0.2625 H   0  0  0  0  0  0  0  0  0  0  0  0
    1.8782    8.1635   -1.6330 H   0  0  0  0  0  0  0  0  0  0  0  0
    3.7753   10.2926   -1.8313 H   0  0  0  0  0  0  0  0  0  0  0  0
    2.7730    9.7354   -3.1685 H   0  0  0  0  0  0  0  0  0  0  0  0
    2.0547   11.6193    0.1339 H   0  0  0  0  0  0  0  0  0  0  0  0
    3.5445   12.1094   -0.7418 H   0  0  0  0  0  0  0  0  0  0  0  0
    2.1072   13.1868   -0.7418 H   0  0  0  0  0  0  0  0  0  0  0  0
    1.7276   11.7064   -4.1115 H   0  0  0  0  0  0  0  0  0  0  0  0
    4.1236   12.1911   -3.2970 H   0  0  0  0  0  0  0  0  0  0  0  0
    3.3840   13.1337   -4.6944 H   0  0  0  0  0  0  0  0  0  0  0  0
    4.7807   14.5336   -2.9530 H   0  0  0  0  0  0  0  0  0  0  0  0
    1.0584   14.4769   -1.3907 H   0  0  0  0  0  0  0  0  0  0  0  0
    0.8358   16.3463   -3.8294 H   0  0  0  0  0  0  0  0  0  0  0  0
   -0.4990   15.8798   -2.6839 H   0  0  0  0  0  0  0  0  0  0  0  0
    0.3777   18.1469   -2.2268 H   0  0  0  0  0  0  0  0  0  0  0  0
    0.6374   16.9987   -0.8554 H   0  0  0  0  0  0  0  0  0  0  0  0
    2.6281   18.3081   -1.1518 H   0  0  0  0  0  0  0  0  0  0  0  0
    2.5400   18.9570   -3.2680 H   0  0  0  0  0  0  0  0  0  0  0  0
    3.5397   16.8148    0.5500 H   0  0  0  0  0  0  0  0  0  0  0  0
    2.0693   15.8487    0.1879 H   0  0  0  0  0  0  0  0  0  0  0  0
    3.6838   15.0613    0.1879 H   0  0  0  0  0  0  0  0  0  0  0  0
    5.2676   16.8222   -0.7821 H   0  0  0  0  0  0  0  0  0  0  0  0
    5.2927   15.9008   -2.3238 H   0  0  0  0  0  0  0  0  0  0  0  0
    4.8409   17.6393   -2.3238 H   0  0  0  0  0  0  0  0  0  0  0  0
    0.2284   14.9585   -4.8006 H   0  0  0  0  0  0  0  0  0  0  0  0
    1.6688   13.9946   -5.2728 H   0  0  0  0  0  0  0  0  0  0  0  0
    0.0407   13.2355   -5.2728 H   0  0  0  0  0  0  0  0  0  0  0  0
   -1.0775   13.9027   -2.4319 H   0  0  0  0  0  0  0  0  0  0  0  0
   -0.9500   12.4946   -3.6298 H   0  0  0  0  0  0  0  0  0  0  0  0
   -0.1904   12.5004   -0.6959 H   0  0  0  0  0  0  0  0  0  0  0  0
   -1.5158   11.5857   -1.5170 H   0  0  0  0  0  0  0  0  0  0  0  0
   -0.6585    9.2409   -2.9043 H   0  0  0  0  0  0  0  0  0  0  0  0
   -0.6665   10.7977   -3.8004 H   0  0  0  0  0  0  0  0  0  0  0  0
    0.8060    9.7689   -3.8004 H   0  0  0  0  0  0  0  0  0  0  0  0
  1  2  1  0
  2  3  1  0
  3  4  1  0
  4  5  1  0
  5  6  1  0
  6  7  1  0
  7  8  1  0
  7  9  1  0
  2 10  1  0
 10 11  1  0
 11 12  1  0
 12 13  1  0
 13 14  1  1
 13 15  1  0
 15 16  1  0
 16 17  1  0
 17 18  2  0
 18 19  1  0
 19 20  1  0
 20 21  1  0
 21 22  1  0
 22 23  1  0
 22 24  1  0
 24 25  1  0
 24 26  1  0
 19 27  1  0
 27 28  1  6
 27 29  1  0
 29 30  1  0
 30 31  1  0
 31 32  1  6
  7  5  1  0
 31 10  1  0
 31 13  1  0
 27 15  1  0
 24 18  1  0
  1 33  1  0
  1 34  1  0
  1 35  1  0
  2 36  1  1
  3 37  1  0
  3 38  1  0
  4 39  1  0
  4 40  1  0
  5 41  1  1
  8 42  1  0
  8 43  1  0
  8 44  1  0
  9 45  1  0
  9 46  1  0
  9 47  1  0
 10 48  1  1
 11 49  1  0
 11 50  1  0
 12 51  1  0
 12 52  1  0
 14 53  1  0
 14 54  1  0
 14 55  1  0
 15 56  1  6
 16 57  1  0
 16 58  1  0
 17 59  1  0
 19 60  1  1
 20 61  1  0
 20 62  1  0
 21 63  1  0
 21 64  1  0
 22 65  1  1
 23 66  1  0
 25 67  1  0
 25 68  1  0
 25 69  1  0
 26 70  1  0
 26 71  1  0
 26 72  1  0
 28 73  1  0
 28 74  1  0
 28 75  1  0
 29 76  1  0
 29 77  1  0
 30 78  1  0
 30 79  1  0
 32 80  1  0
 32 81  1  0
 32 82  1  0
M  END
>  <meeko>  (17) 
{"is_sidechain": [false], "intermolecular_energy": 2.731, "internal_energy": -0.839}

$$$$
EPH_relaxed_0001_pdb2pqr_Repair_138_r2_0001_out
     RDKit          3D

 82 86  0  0  0  0  0  0  0  0999 V2000
    2.8810    9.9060   -2.9970 C   0  0  0  0  0  0  0  0  0  0  0  0
    2.7990   10.4110   -1.5540 C   0  0  2  0  0  0  0  0  0  0  0  0
    1.4020   10.1920   -0.9410 C   0  0  0  0  0  0  0  0  0  0  0  0
    0.4270    9.4670   -1.8720 C   0  0  0  0  0  0  0  0  0  0  0  0
   -0.7900    8.9900   -1.1390 C   0  0  2  0  0  0  0  0  0  0  0  0
   -1.9780    8.9140   -1.9380 O   0  0  0  0  0  0  0  0  0  0  0  0
   -1.9970    9.8670   -0.8620 C   0  0  0  0  0  0  0  0  0  0  0  0
   -2.0460   11.2930   -1.3140 C   0  0  0  0  0  0  0  0  0  0  0  0
   -2.9120    9.4910    0.2610 C   0  0  0  0  0  0  0  0  0  0  0  0
    3.1670   11.8890   -1.4990 C   0  0  1  0  0  0  0  0  0  0  0  0
    4.4220   12.2240   -2.3490 C   0  0  0  0  0  0  0  0  0  0  0  0
    4.1970   13.6410   -2.9380 C   0  0  0  0  0  0  0  0  0  0  0  0
    2.9910   14.2040   -2.1500 C   0  0  1  0  0  0  0  0  0  0  0  0
    3.5950   14.7210   -0.8070 C   0  0  0  0  0  0  0  0  0  0  0  0
    2.1510   15.3090   -2.8700 C   0  0  2  0  0  0  0  0  0  0  0  0
    2.9170   16.6050   -3.1890 C   0  0  0  0  0  0  0  0  0  0  0  0
    2.8670   17.6540   -2.1280 C   0  0  0  0  0  0  0  0  0  0  0  0
    2.0070   17.6780   -1.0920 C   0  0  0  0  0  0  0  0  0  0  0  0
    0.8950   16.6300   -0.9680 C   0  0  1  0  0  0  0  0  0  0  0  0
   -0.4450   17.3340   -0.6270 C   0  0  0  0  0  0  0  0  0  0  0  0
   -0.3410   18.2240    0.6080 C   0  0  0  0  0  0  0  0  0  0  0  0
    0.7360   19.2900    0.4220 C   0  0  2  0  0  0  0  0  0  0  0  0
    0.3190   20.1930   -0.6060 O   0  0  0  0  0  0  0  0  0  0  0  0
    2.1290   18.6990    0.0660 C   0  0  0  0  0  0  0  0  0  0  0  0
    2.7150   17.9680    1.2990 C   0  0  0  0  0  0  0  0  0  0  0  0
    3.0880   19.8830   -0.2330 C   0  0  0  0  0  0  0  0  0  0  0  0
    0.7590   15.6150   -2.1830 C   0  0  1  0  0  0  0  0  0  0  0  0
   -0.1570   16.2270   -3.2870 C   0  0  0  0  0  0  0  0  0  0  0  0
    0.0380   14.3070   -1.6830 C   0  0  0  0  0  0  0  0  0  0  0  0
    0.9350   13.2030   -1.0920 C   0  0  0  0  0  0  0  0  0  0  0  0
    2.1180   12.9030   -2.0180 C   0  0  2  0  0  0  0  0  0  0  0  0
    1.5420   12.3590   -3.3700 C   0  0  0  0  0  0  0  0  0  0  0  0
    3.0573    8.8202   -2.9960 H   0  0  0  0  0  0  0  0  0  0  0  0
    1.9358   10.1235   -3.5159 H   0  0  0  0  0  0  0  0  0  0  0  0
    3.7088   10.4114   -3.5159 H   0  0  0  0  0  0  0  0  0  0  0  0
    3.5158    9.8274   -0.9576 H   0  0  0  0  0  0  0  0  0  0  0  0
    1.5151    9.5951   -0.0240 H   0  0  0  0  0  0  0  0  0  0  0  0
    0.9779   11.1878   -0.7447 H   0  0  0  0  0  0  0  0  0  0  0  0
    0.1149   10.1579   -2.6690 H   0  0  0  0  0  0  0  0  0  0  0  0
    0.9412    8.5889   -2.2898 H   0  0  0  0  0  0  0  0  0  0  0  0
   -0.1761    8.3524   -0.4858 H   0  0  0  0  0  0  0  0  0  0  0  0
   -2.0688   11.9553   -0.4361 H   0  0  0  0  0  0  0  0  0  0  0  0
   -1.1550   11.5167   -1.9191 H   0  0  0  0  0  0  0  0  0  0  0  0
   -2.9502   11.4550   -1.9191 H   0  0  0  0  0  0  0  0  0  0  0  0
   -2.4164    9.6947    1.2217 H   0  0  0  0  0  0  0  0  0  0  0  0
   -3.8375   10.0817    0.1934 H   0  0  0  0  0  0  0  0  0  0  0  0
   -3.1547    8.4202    0.1934 H   0  0  0  0  0  0  0  0  0  0  0  0
    3.2975   12.0062   -0.4131 H   0  0  0  0  0  0  0  0  0  0  0  0
    5.3217   12.2151   -1.7162 H   0  0  0  0  0  0  0  0  0  0  0  0
    4.5678   11.4823   -3.1481 H   0  0  0  0  0  0  0  0  0  0  0  0
    5.0869   14.2699   -2.7876 H   0  0  0  0  0  0  0  0  0  0  0  0
    4.0127   13.6177   -4.0222 H   0  0  0  0  0  0  0  0  0  0  0  0
    3.0589   14.2621    0.0368 H   0  0  0  0  0  0  0  0  0  0  0  0
    4.6599   14.4503   -0.7556 H   0  0  0  0  0  0  0  0  0  0  0  0
    3.4919   15.8149   -0.7556 H   0  0  0  0  0  0  0  0  0  0  0  0
    1.9315   14.8438   -3.8423 H   0  0  0  0  0  0  0  0  0  0  0  0
    3.9719   16.3432   -3.3584 H   0  0  0  0  0  0  0  0  0  0  0  0
    2.4236   17.0405   -4.0704 H   0  0  0  0  0  0  0  0  0  0  0  0
    3.5939   18.4766   -2.1984 H   0  0  0  0  0  0  0  0  0  0  0  0
    1.1914   15.9699   -0.1395 H   0  0  0  0  0  0  0  0  0  0  0  0
   -0.7455   17.9543   -1.4843 H   0  0  0  0  0  0  0  0  0  0  0  0
   -1.1880   16.5516   -0.4130 H   0  0  0  0  0  0  0  0  0  0  0  0
   -1.3095   18.7166    0.7796 H   0  0  0  0  0  0  0  0  0  0  0  0
   -0.0704   17.5977    1.4708 H   0  0  0  0  0  0  0  0  0  0  0  0
    0.8534   19.8107    1.3838 H   0  0  0  0  0  0  0  0  0  0  0  0
    0.3780   19.7200   -1.4540 H   0  0  0  0  0  0  0  0  0  0  0  0
    2.3373   18.4392    2.2184 H   0  0  0  0  0  0  0  0  0  0  0  0
    2.4112   16.9110    1.2772 H   0  0  0  0  0  0  0  0  0  0  0  0
    3.8128   18.0345    1.2772 H   0  0  0  0  0  0  0  0  0  0  0  0
    3.4402   20.3178    0.7141 H   0  0  0  0  0  0  0  0  0  0  0  0
    3.9495   19.5197   -0.8124 H   0  0  0  0  0  0  0  0  0  0  0  0
    2.5537   20.6503   -0.8124 H   0  0  0  0  0  0  0  0  0  0  0  0
   -0.9828   16.7787   -2.8140 H   0  0  0  0  0  0  0  0  0  0  0  0
    0.4318   16.9138   -3.9128 H   0  0  0  0  0  0  0  0  0  0  0  0
   -0.5661   15.4202   -3.9128 H   0  0  0  0  0  0  0  0  0  0  0  0
   -0.6837   14.6007   -0.9066 H   0  0  0  0  0  0  0  0  0  0  0  0
   -0.4101   13.8626   -2.5840 H   0  0  0  0  0  0  0  0  0  0  0  0
    1.3176   13.5346   -0.1154 H   0  0  0  0  0  0  0  0  0  0  0  0
    0.3362   12.2871   -0.9802 H   0  0  0  0  0  0  0  0  0  0  0  0
    0.7567   11.6173   -3.1620 H   0  0  0  0  0  0  0  0  0  0  0  0
    1.1158   13.1919   -3.9485 H   0  0  0  0  0  0  0  0  0  0  0  0
    2.3492   11.8859   -3.9485 H   0  0  0  0  0  0  0  0  0  0  0  0
  1  2  1  0
  2  3  1  0
  3  4  1  0
  4  5  1  0
  5  6  1  0
  6  7  1  0
  7  8  1  0
  7  9  1  0
  2 10  1  0
 10 11  1  0
 11 12  1  0
 12 13  1  0
 13 14  1  1
 13 15  1  0
 15 16  1  0
 16 17  1  0
 17 18  2  0
 18 19  1  0
 19 20  1  0
 20 21  1  0
 21 22  1  0
 22 23  1  0
 22 24  1  0
 24 25  1  0
 24 26  1  0
 19 27  1  0
 27 28  1  6
 27 29  1  0
 29 30  1  0
 30 31  1  0
 31 32  1  6
  7  5  1  0
 31 10  1  0
 31 13  1  0
 27 15  1  0
 24 18  1  0
  1 33  1  0
  1 34  1  0
  1 35  1  0
  2 36  1  1
  3 37  1  0
  3 38  1  0
  4 39  1  0
  4 40  1  0
  5 41  1  1
  8 42  1  0
  8 43  1  0
  8 44  1  0
  9 45  1  0
  9 46  1  0
  9 47  1  0
 10 48  1  1
 11 49  1  0
 11 50  1  0
 12 51  1  0
 12 52  1  0
 14 53  1  0
 14 54  1  0
 14 55  1  0
 15 56  1  6
 16 57  1  0
 16 58  1  0
 17 59  1  0
 19 60  1  1
 20 61  1  0
 20 62  1  0
 21 63  1  0
 21 64  1  0
 22 65  1  1
 23 66  1  0
 25 67  1  0
 25 68  1  0
 25 69  1  0
 26 70  1  0
 26 71  1  0
 26 72  1  0
 28 73  1  0
 28 74  1  0
 28 75  1  0
 29 76  1  0
 29 77  1  0
 30 78  1  0
 30 79  1  0
 32 80  1  0
 32 81  1  0
 32 82  1  0
M  END
>  <meeko>  (18) 
{"is_sidechain": [false], "intermolecular_energy": 2.731, "internal_energy": -0.839}

$$$$
EPH_relaxed_0001_pdb2pqr_Repair_138_r2_0001_out
     RDKit          3D

 82 86  0  0  0  0  0  0  0  0999 V2000
    4.6700   17.4870   -2.6810 C   0  0  0  0  0  0  0  0  0  0  0  0
    3.1910   17.1860   -2.4210 C   0  0  2  0  0  0  0  0  0  0  0  0
    2.5100   18.2950   -1.5930 C   0  0  0  0  0  0  0  0  0  0  0  0
    3.4650   19.0360   -0.6540 C   0  0  0  0  0  0  0  0  0  0  0  0
    3.4800   18.4290    0.7160 C   0  0  2  0  0  0  0  0  0  0  0  0
    2.8900   19.2430    1.7380 O   0  0  0  0  0  0  0  0  0  0  0  0
    4.2970   18.9820    1.8680 C   0  0  0  0  0  0  0  0  0  0  0  0
    5.1590   20.1940    1.7020 C   0  0  0  0  0  0  0  0  0  0  0  0
    4.6390   18.0710    3.0060 C   0  0  0  0  0  0  0  0  0  0  0  0
    3.0500   15.8450   -1.7110 C   0  0  1  0  0  0  0  0  0  0  0  0
    3.4940   15.9060   -0.2250 C   0  0  0  0  0  0  0  0  0  0  0  0
    2.5650   14.9430    0.5590 C   0  0  0  0  0  0  0  0  0  0  0  0
    1.8460   14.1180   -0.5340 C   0  0  1  0  0  0  0  0  0  0  0  0
    2.8670   13.0080   -0.9350 C   0  0  0  0  0  0  0  0  0  0  0  0
    0.4590   13.5130   -0.1420 C   0  0  2  0  0  0  0  0  0  0  0  0
    0.4940   12.4950    1.0110 C   0  0  0  0  0  0  0  0  0  0  0  0
    0.6840   11.0720    0.6000 C   0  0  0  0  0  0  0  0  0  0  0  0
    0.5370   10.5930   -0.6490 C   0  0  0  0  0  0  0  0  0  0  0  0
    0.0470   11.4970   -1.7870 C   0  0  1  0  0  0  0  0  0  0  0  0
   -1.0560   10.7630   -2.5940 C   0  0  0  0  0  0  0  0  0  0  0  0
   -0.6030    9.3930   -3.0910 C   0  0  0  0  0  0  0  0  0  0  0  0
   -0.1800    8.5030   -1.9250 C   0  0  2  0  0  0  0  0  0  0  0  0
   -1.3320    8.2080   -1.1290 O   0  0  0  0  0  0  0  0  0  0  0  0
    0.9210    9.1430   -1.0340 C   0  0  0  0  0  0  0  0  0  0  0  0
    2.2600    9.1850   -1.8120 C   0  0  0  0  0  0  0  0  0  0  0  0
    1.1550    8.2060    0.1820 C   0  0  0  0  0  0  0  0  0  0  0  0
   -0.3800   12.9690   -1.3680 C   0  0  1  0  0  0  0  0  0  0  0  0
   -1.8750   12.9830   -0.9250 C   0  0  0  0  0  0  0  0  0  0  0  0
   -0.2810   13.9110   -2.6260 C   0  0  0  0  0  0  0  0  0  0  0  0
    1.0840   14.5740   -2.8920 C   0  0  0  0  0  0  0  0  0  0  0  0
    1.6300   15.2330   -1.6210 C   0  0  2  0  0  0  0  0  0  0  0  0
    0.6350   16.3700   -1.2060 C   0  0  0  0  0  0  0  0  0  0  0  0
    5.1966   17.5942   -1.7212 H   0  0  0  0  0  0  0  0  0  0  0  0
    5.1169   16.6614   -3.2543 H   0  0  0  0  0  0  0  0  0  0  0  0
    4.7587   18.4216   -3.2543 H   0  0  0  0  0  0  0  0  0  0  0  0
    2.6852   17.1444   -3.3969 H   0  0  0  0  0  0  0  0  0  0  0  0
    2.0691   19.0256   -2.2872 H   0  0  0  0  0  0  0  0  0  0  0  0
    1.7533   17.8062   -0.9618 H   0  0  0  0  0  0  0  0  0  0  0  0
    4.4810   18.9937   -1.0734 H   0  0  0  0  0  0  0  0  0  0  0  0
    3.1178   20.0758   -0.5637 H   0  0  0  0  0  0  0  0  0  0  0  0
    3.3914   17.4172    0.2937 H   0  0  0  0  0  0  0  0  0  0  0  0
    5.4369   20.5847    2.6920 H   0  0  0  0  0  0  0  0  0  0  0  0
    6.0688   19.9235    1.1460 H   0  0  0  0  0  0  0  0  0  0  0  0
    4.6050   20.9646    1.1460 H   0  0  0  0  0  0  0  0  0  0  0  0
    4.4457   18.5858    3.9587 H   0  0  0  0  0  0  0  0  0  0  0  0
    4.0204   17.1633    2.9477 H   0  0  0  0  0  0  0  0  0  0  0  0
    5.7021   17.7946    2.9477 H   0  0  0  0  0  0  0  0  0  0  0  0
    3.6860   15.2256   -2.3605 H   0  0  0  0  0  0  0  0  0  0  0  0
    4.5414   15.5839   -0.1290 H   0  0  0  0  0  0  0  0  0  0  0  0
    3.4219   16.9312    0.1672 H   0  0  0  0  0  0  0  0  0  0  0  0
    3.1529   14.2865    1.2173 H   0  0  0  0  0  0  0  0  0  0  0  0
    1.8583   15.4813    1.2077 H   0  0  0  0  0  0  0  0  0  0  0  0
    3.2873   12.5511   -0.0269 H   0  0  0  0  0  0  0  0  0  0  0  0
    2.3557   12.2372   -1.5304 H   0  0  0  0  0  0  0  0  0  0  0  0
    3.6777   13.4533   -1.5304 H   0  0  0  0  0  0  0  0  0  0  0  0
   -0.0789   14.3891    0.2493 H   0  0  0  0  0  0  0  0  0  0  0  0
    1.3223   12.7687    1.6811 H   0  0  0  0  0  0  0  0  0  0  0  0
   -0.4949   12.5439    1.4902 H   0  0  0  0  0  0  0  0  0  0  0  0
    0.9681   10.3549    1.3843 H   0  0  0  0  0  0  0  0  0  0  0  0
    0.9212   11.6773   -2.4298 H   0  0  0  0  0  0  0  0  0  0  0  0
   -1.9365   10.6305   -1.9481 H   0  0  0  0  0  0  0  0  0  0  0  0
   -1.2899   11.3777   -3.4757 H   0  0  0  0  0  0  0  0  0  0  0  0
   -1.4337    8.9121   -3.6283 H   0  0  0  0  0  0  0  0  0  0  0  0
    0.2595    9.5294   -3.7599 H   0  0  0  0  0  0  0  0  0  0  0  0
    0.2545    7.5862   -2.3502 H   0  0  0  0  0  0  0  0  0  0  0  0
   -1.9530    8.9490   -1.2240 H   0  0  0  0  0  0  0  0  0  0  0  0
    3.0975    9.2113   -1.0993 H   0  0  0  0  0  0  0  0  0  0  0  0
    2.3448    8.2891   -2.4446 H   0  0  0  0  0  0  0  0  0  0  0  0
    2.2885   10.0845   -2.4446 H   0  0  0  0  0  0  0  0  0  0  0  0
    1.0135    8.7727    1.1141 H   0  0  0  0  0  0  0  0  0  0  0  0
    0.4373    7.3732    0.1466 H   0  0  0  0  0  0  0  0  0  0  0  0
    2.1800    7.8084    0.1466 H   0  0  0  0  0  0  0  0  0  0  0  0
   -1.9319   12.9835    0.1735 H   0  0  0  0  0  0  0  0  0  0  0  0
   -2.3654   13.8858   -1.3180 H   0  0  0  0  0  0  0  0  0  0  0  0
   -2.3823   12.0896   -1.3180 H   0  0  0  0  0  0  0  0  0  0  0  0
   -0.5379   13.3114   -3.5117 H   0  0  0  0  0  0  0  0  0  0  0  0
   -0.9693   14.7433   -2.4171 H   0  0  0  0  0  0  0  0  0  0  0  0
    1.7955   13.8082   -3.2345 H   0  0  0  0  0  0  0  0  0  0  0  0
    0.9536   15.3495   -3.6612 H   0  0  0  0  0  0  0  0  0  0  0  0
    0.5831   16.4294   -0.1088 H   0  0  0  0  0  0  0  0  0  0  0  0
    0.9876   17.3309   -1.6089 H   0  0  0  0  0  0  0  0  0  0  0  0
   -0.3642   16.1480   -1.6089 H   0  0  0  0  0  0  0  0  0  0  0  0
  1  2  1  0
  2  3  1  0
  3  4  1  0
  4  5  1  0
  5  6  1  0
  6  7  1  0
  7  8  1  0
  7  9  1  0
  2 10  1  0
 10 11  1  0
 11 12  1  0
 12 13  1  0
 13 14  1  6
 13 15  1  0
 15 16  1  0
 16 17  1  0
 17 18  2  0
 18 19  1  0
 19 20  1  0
 20 21  1  0
 21 22  1  0
 22 23  1  0
 22 24  1  0
 24 25  1  0
 24 26  1  0
 19 27  1  0
 27 28  1  1
 27 29  1  0
 29 30  1  0
 30 31  1  0
 31 32  1  1
  7  5  1  0
 31 10  1  0
 31 13  1  0
 27 15  1  0
 24 18  1  0
  1 33  1  0
  1 34  1  0
  1 35  1  0
  2 36  1  6
  3 37  1  0
  3 38  1  0
  4 39  1  0
  4 40  1  0
  5 41  1  6
  8 42  1  0
  8 43  1  0
  8 44  1  0
  9 45  1  0
  9 46  1  0
  9 47  1  0
 10 48  1  6
 11 49  1  0
 11 50  1  0
 12 51  1  0
 12 52  1  0
 14 53  1  0
 14 54  1  0
 14 55  1  0
 15 56  1  1
 16 57  1  0
 16 58  1  0
 17 59  1  0
 19 60  1  6
 20 61  1  0
 20 62  1  0
 21 63  1  0
 21 64  1  0
 22 65  1  6
 23 66  1  0
 25 67  1  0
 25 68  1  0
 25 69  1  0
 26 70  1  0
 26 71  1  0
 26 72  1  0
 28 73  1  0
 28 74  1  0
 28 75  1  0
 29 76  1  0
 29 77  1  0
 30 78  1  0
 30 79  1  0
 32 80  1  0
 32 81  1  0
 32 82  1  0
M  END
>  <meeko>  (19) 
{"is_sidechain": [false], "intermolecular_energy": 2.731, "internal_energy": -0.839}

$$$$
