EPH_relaxed_0001_pdb2pqr_Repair_268_r2_0001_out
     RDKit          3D

 82 86  0  0  0  0  0  0  0  0999 V2000
   -1.6970    8.5850   -1.8580 C   0  0  0  0  0  0  0  0  0  0  0  0
   -2.0840    9.1210   -0.4770 C   0  0  2  0  0  0  0  0  0  0  0  0
   -3.5770    9.4970   -0.3970 C   0  0  0  0  0  0  0  0  0  0  0  0
   -4.5080    8.2910   -0.2440 C   0  0  0  0  0  0  0  0  0  0  0  0
   -5.1890    7.9500   -1.5350 C   0  0  2  0  0  0  0  0  0  0  0  0
   -6.3500    8.7400   -1.8250 O   0  0  0  0  0  0  0  0  0  0  0  0
   -6.5750    7.3370   -1.6120 C   0  0  0  0  0  0  0  0  0  0  0  0
   -7.3620    7.0280   -0.3770 C   0  0  0  0  0  0  0  0  0  0  0  0
   -6.9600    6.5930   -2.8530 C   0  0  0  0  0  0  0  0  0  0  0  0
   -1.2230   10.3300   -0.1290 C   0  0  1  0  0  0  0  0  0  0  0  0
   -0.1870   10.0260    0.9850 C   0  0  0  0  0  0  0  0  0  0  0  0
    1.0820   10.8540    0.6550 C   0  0  0  0  0  0  0  0  0  0  0  0
    0.6240   11.8500   -0.4360 C   0  0  1  0  0  0  0  0  0  0  0  0
   -0.0790   13.0040    0.3440 C   0  0  0  0  0  0  0  0  0  0  0  0
    1.7400   12.3930   -1.3880 C   0  0  2  0  0  0  0  0  0  0  0  0
    2.8460   13.2090   -0.6970 C   0  0  0  0  0  0  0  0  0  0  0  0
    2.5950   14.6790   -0.6130 C   0  0  0  0  0  0  0  0  0  0  0  0
    1.6690   15.3560   -1.3170 C   0  0  0  0  0  0  0  0  0  0  0  0
    0.8200   14.6520   -2.3830 C   0  0  1  0  0  0  0  0  0  0  0  0
    0.7870   15.5140   -3.6720 C   0  0  0  0  0  0  0  0  0  0  0  0
    0.3250   16.9430   -3.4080 C   0  0  0  0  0  0  0  0  0  0  0  0
    1.2280   17.6290   -2.3870 C   0  0  2  0  0  0  0  0  0  0  0  0
    2.5280   17.7990   -2.9620 O   0  0  0  0  0  0  0  0  0  0  0  0
    1.3460   16.8470   -1.0500 C   0  0  0  0  0  0  0  0  0  0  0  0
    0.0030   16.9230   -0.2820 C   0  0  0  0  0  0  0  0  0  0  0  0
    2.3950   17.5710   -0.1630 C   0  0  0  0  0  0  0  0  0  0  0  0
    1.1910   13.1340   -2.6730 C   0  0  1  0  0  0  0  0  0  0  0  0
    2.3190   13.0580   -3.7470 C   0  0  0  0  0  0  0  0  0  0  0  0
   -0.0610   12.4080   -3.2930 C   0  0  0  0  0  0  0  0  0  0  0  0
   -1.0660   11.7890   -2.3030 C   0  0  0  0  0  0  0  0  0  0  0  0
   -0.3480   10.9280   -1.2590 C   0  0  2  0  0  0  0  0  0  0  0  0
    0.3510    9.7460   -2.0120 C   0  0  0  0  0  0  0  0  0  0  0  0
   -1.0567    7.6982   -1.7409 H   0  0  0  0  0  0  0  0  0  0  0  0
   -2.6063    8.3101   -2.4126 H   0  0  0  0  0  0  0  0  0  0  0  0
   -1.1499    9.3616   -2.4126 H   0  0  0  0  0  0  0  0  0  0  0  0
   -1.9072    8.3161    0.2516 H   0  0  0  0  0  0  0  0  0  0  0  0
   -3.7223   10.1599    0.4687 H   0  0  0  0  0  0  0  0  0  0  0  0
   -3.8370    9.9853   -1.3478 H   0  0  0  0  0  0  0  0  0  0  0  0
   -3.9173    7.4243    0.0874 H   0  0  0  0  0  0  0  0  0  0  0  0
   -5.2816    8.5462    0.4952 H   0  0  0  0  0  0  0  0  0  0  0  0
   -4.2305    7.6671   -1.9946 H   0  0  0  0  0  0  0  0  0  0  0  0
   -6.7582    7.2651    0.5114 H   0  0  0  0  0  0  0  0  0  0  0  0
   -8.2813    7.6319   -0.3674 H   0  0  0  0  0  0  0  0  0  0  0  0
   -7.6248    5.9599   -0.3674 H   0  0  0  0  0  0  0  0  0  0  0  0
   -7.4493    5.6474   -2.5767 H   0  0  0  0  0  0  0  0  0  0  0  0
   -7.6544    7.2053   -3.4470 H   0  0  0  0  0  0  0  0  0  0  0  0
   -6.0591    6.3797   -3.4470 H   0  0  0  0  0  0  0  0  0  0  0  0
   -2.0119   11.0424    0.1540 H   0  0  0  0  0  0  0  0  0  0  0  0
   -0.5877   10.3219    1.9657 H   0  0  0  0  0  0  0  0  0  0  0  0
    0.0431    8.9512    1.0273 H   0  0  0  0  0  0  0  0  0  0  0  0
    1.4382   11.3910    1.5465 H   0  0  0  0  0  0  0  0  0  0  0  0
    1.9173   10.2219    0.3192 H   0  0  0  0  0  0  0  0  0  0  0  0
    0.0255   12.8324    1.4255 H   0  0  0  0  0  0  0  0  0  0  0  0
    0.3879   13.9639    0.0782 H   0  0  0  0  0  0  0  0  0  0  0  0
   -1.1461   13.0293    0.0782 H   0  0  0  0  0  0  0  0  0  0  0  0
    2.2245   11.4688   -1.7360 H   0  0  0  0  0  0  0  0  0  0  0  0
    2.9626   12.8248    0.3271 H   0  0  0  0  0  0  0  0  0  0  0  0
    3.7464   13.0885   -1.3173 H   0  0  0  0  0  0  0  0  0  0  0  0
    3.2200   15.2574    0.0833 H   0  0  0  0  0  0  0  0  0  0  0  0
   -0.1930   14.5731   -1.9615 H   0  0  0  0  0  0  0  0  0  0  0  0
    1.7990   15.5443   -4.1019 H   0  0  0  0  0  0  0  0  0  0  0  0
    0.0669   15.0527   -4.3639 H   0  0  0  0  0  0  0  0  0  0  0  0
    0.3518   17.5098   -4.3504 H   0  0  0  0  0  0  0  0  0  0  0  0
   -0.6986   16.9122   -3.0063 H   0  0  0  0  0  0  0  0  0  0  0  0
    0.7716   18.5996   -2.1426 H   0  0  0  0  0  0  0  0  0  0  0  0
    2.8220   16.9300   -3.2840 H   0  0  0  0  0  0  0  0  0  0  0  0
    0.1985   16.9119    0.8004 H   0  0  0  0  0  0  0  0  0  0  0  0
   -0.5209   17.8522   -0.5505 H   0  0  0  0  0  0  0  0  0  0  0  0
   -0.6224   16.0588   -0.5505 H   0  0  0  0  0  0  0  0  0  0  0  0
    2.1551   17.4055    0.8977 H   0  0  0  0  0  0  0  0  0  0  0  0
    3.3966   17.1710   -0.3792 H   0  0  0  0  0  0  0  0  0  0  0  0
    2.3763   18.6494   -0.3792 H   0  0  0  0  0  0  0  0  0  0  0  0
    3.2969   12.9921   -3.2476 H   0  0  0  0  0  0  0  0  0  0  0  0
    2.1675   12.1680   -4.3755 H   0  0  0  0  0  0  0  0  0  0  0  0
    2.2883   13.9603   -4.3755 H   0  0  0  0  0  0  0  0  0  0  0  0
   -0.6050   13.1448   -3.9023 H   0  0  0  0  0  0  0  0  0  0  0  0
    0.3495   11.5569   -3.8562 H   0  0  0  0  0  0  0  0  0  0  0  0
   -1.6103   12.5962   -1.7909 H   0  0  0  0  0  0  0  0  0  0  0  0
   -1.7634   11.1502   -2.8647 H   0  0  0  0  0  0  0  0  0  0  0  0
    0.7685    9.0401   -1.2789 H   0  0  0  0  0  0  0  0  0  0  0  0
   -0.3853    9.2267   -2.6430 H   0  0  0  0  0  0  0  0  0  0  0  0
    1.1608   10.1410   -2.6430 H   0  0  0  0  0  0  0  0  0  0  0  0
  1  2  1  0
  2  3  1  0
  3  4  1  0
  4  5  1  0
  5  6  1  0
  6  7  1  0
  7  8  1  0
  7  9  1  0
  2 10  1  0
 10 11  1  0
 11 12  1  0
 12 13  1  0
 13 14  1  1
 13 15  1  0
 15 16  1  0
 16 17  1  0
 17 18  2  0
 18 19  1  0
 19 20  1  0
 20 21  1  0
 21 22  1  0
 22 23  1  0
 22 24  1  0
 24 25  1  0
 24 26  1  0
 19 27  1  0
 27 28  1  6
 27 29  1  0
 29 30  1  0
 30 31  1  0
 31 32  1  6
  7  5  1  0
 31 10  1  0
 31 13  1  0
 27 15  1  0
 24 18  1  0
  1 33  1  0
  1 34  1  0
  1 35  1  0
  2 36  1  1
  3 37  1  0
  3 38  1  0
  4 39  1  0
  4 40  1  0
  5 41  1  6
  8 42  1  0
  8 43  1  0
  8 44  1  0
  9 45  1  0
  9 46  1  0
  9 47  1  0
 10 48  1  1
 11 49  1  0
 11 50  1  0
 12 51  1  0
 12 52  1  0
 14 53  1  0
 14 54  1  0
 14 55  1  0
 15 56  1  6
 16 57  1  0
 16 58  1  0
 17 59  1  0
 19 60  1  1
 20 61  1  0
 20 62  1  0
 21 63  1  0
 21 64  1  0
 22 65  1  1
 23 66  1  0
 25 67  1  0
 25 68  1  0
 25 69  1  0
 26 70  1  0
 26 71  1  0
 26 72  1  0
 28 73  1  0
 28 74  1  0
 28 75  1  0
 29 76  1  0
 29 77  1  0
 30 78  1  0
 30 79  1  0
 32 80  1  0
 32 81  1  0
 32 82  1  0
M  END
>  <meeko>  (1) 
{"is_sidechain": [false], "intermolecular_energy": 2.731, "internal_energy": -0.839}

$$$$
EPH_relaxed_0001_pdb2pqr_Repair_268_r2_0001_out
     RDKit          3D

 82 86  0  0  0  0  0  0  0  0999 V2000
    4.2090   17.5560   -0.7060 C   0  0  0  0  0  0  0  0  0  0  0  0
    2.8530   18.1310   -0.2860 C   0  0  2  0  0  0  0  0  0  0  0  0
    2.9190   18.8340    1.0840 C   0  0  0  0  0  0  0  0  0  0  0  0
    4.2080   18.5490    1.8600 C   0  0  0  0  0  0  0  0  0  0  0  0
    4.2200   19.2440    3.1880 C   0  0  2  0  0  0  0  0  0  0  0  0
    5.2800   20.1940    3.3570 O   0  0  0  0  0  0  0  0  0  0  0  0
    5.3110   19.0490    4.2250 C   0  0  0  0  0  0  0  0  0  0  0  0
    6.4660   18.1310    3.9780 C   0  0  0  0  0  0  0  0  0  0  0  0
    5.0050   19.3680    5.6550 C   0  0  0  0  0  0  0  0  0  0  0  0
    1.8070   17.0230   -0.2530 C   0  0  1  0  0  0  0  0  0  0  0  0
    0.3770   17.5420   -0.5620 C   0  0  0  0  0  0  0  0  0  0  0  0
   -0.3480   16.4180   -1.3460 C   0  0  0  0  0  0  0  0  0  0  0  0
    0.5590   15.1760   -1.1740 C   0  0  1  0  0  0  0  0  0  0  0  0
    0.1950   14.6050    0.2320 C   0  0  0  0  0  0  0  0  0  0  0  0
    0.4520   14.0830   -2.2870 C   0  0  2  0  0  0  0  0  0  0  0  0
   -0.9290   13.4160   -2.4150 C   0  0  0  0  0  0  0  0  0  0  0  0
   -1.1240   12.1900   -1.5860 C   0  0  0  0  0  0  0  0  0  0  0  0
   -0.1450   11.4840   -0.9910 C   0  0  0  0  0  0  0  0  0  0  0  0
    1.3300   11.8470   -1.2060 C   0  0  1  0  0  0  0  0  0  0  0  0
    2.1410   10.5600   -1.5090 C   0  0  0  0  0  0  0  0  0  0  0  0
    1.9540    9.4850   -0.4430 C   0  0  0  0  0  0  0  0  0  0  0  0
    0.4810    9.1100   -0.3000 C   0  0  2  0  0  0  0  0  0  0  0  0
    0.0500    8.4660   -1.5030 O   0  0  0  0  0  0  0  0  0  0  0  0
   -0.4360   10.3290   -0.0020 C   0  0  0  0  0  0  0  0  0  0  0  0
   -0.1700   10.8410    1.4360 C   0  0  0  0  0  0  0  0  0  0  0  0
   -1.9080    9.8350   -0.0210 C   0  0  0  0  0  0  0  0  0  0  0  0
    1.6130   13.0080   -2.2530 C   0  0  1  0  0  0  0  0  0  0  0  0
    1.7110   12.4150   -3.6920 C   0  0  0  0  0  0  0  0  0  0  0  0
    3.0150   13.6520   -1.9410 C   0  0  0  0  0  0  0  0  0  0  0  0
    3.0390   14.8070   -0.9220 C   0  0  0  0  0  0  0  0  0  0  0  0
    1.9740   15.8560   -1.2580 C   0  0  2  0  0  0  0  0  0  0  0  0
    2.3270   16.4640   -2.6580 C   0  0  0  0  0  0  0  0  0  0  0  0
    4.7955   17.3073    0.1908 H   0  0  0  0  0  0  0  0  0  0  0  0
    4.0521   16.6470   -1.3052 H   0  0  0  0  0  0  0  0  0  0  0  0
    4.7533   18.3007   -1.3052 H   0  0  0  0  0  0  0  0  0  0  0  0
    2.5696   18.8884   -1.0317 H   0  0  0  0  0  0  0  0  0  0  0  0
    2.8441   19.9193    0.9215 H   0  0  0  0  0  0  0  0  0  0  0  0
    2.0869   18.4419    1.6872 H   0  0  0  0  0  0  0  0  0  0  0  0
    4.2930   17.4647    2.0242 H   0  0  0  0  0  0  0  0  0  0  0  0
    5.0553   18.9253    1.2680 H   0  0  0  0  0  0  0  0  0  0  0  0
    3.1232   19.1906    3.2522 H   0  0  0  0  0  0  0  0  0  0  0  0
    6.8832   17.7994    4.9403 H   0  0  0  0  0  0  0  0  0  0  0  0
    6.1232   17.2561    3.4060 H   0  0  0  0  0  0  0  0  0  0  0  0
    7.2409   18.6624    3.4060 H   0  0  0  0  0  0  0  0  0  0  0  0
    5.6159   18.7311    6.3116 H   0  0  0  0  0  0  0  0  0  0  0  0
    5.2352   20.4254    5.8522 H   0  0  0  0  0  0  0  0  0  0  0  0
    3.9389   19.1819    5.8522 H   0  0  0  0  0  0  0  0  0  0  0  0
    1.9571   16.6591    0.7742 H   0  0  0  0  0  0  0  0  0  0  0  0
   -0.1586   17.7565    0.3746 H   0  0  0  0  0  0  0  0  0  0  0  0
    0.4129   18.4721   -1.1482 H   0  0  0  0  0  0  0  0  0  0  0  0
   -1.3464   16.2315   -0.9236 H   0  0  0  0  0  0  0  0  0  0  0  0
   -0.5024   16.6791   -2.4034 H   0  0  0  0  0  0  0  0  0  0  0  0
    0.6117   15.2587    1.0124 H   0  0  0  0  0  0  0  0  0  0  0  0
   -0.8990   14.5597    0.3373 H   0  0  0  0  0  0  0  0  0  0  0  0
    0.6157   13.5941    0.3373 H   0  0  0  0  0  0  0  0  0  0  0  0
    0.5871   14.6690   -3.2081 H   0  0  0  0  0  0  0  0  0  0  0  0
   -1.6908   14.1519   -2.1180 H   0  0  0  0  0  0  0  0  0  0  0  0
   -1.0146   13.0919   -3.4627 H   0  0  0  0  0  0  0  0  0  0  0  0
   -2.1556   11.8334   -1.4499 H   0  0  0  0  0  0  0  0  0  0  0  0
    1.6748   12.2912   -0.2606 H   0  0  0  0  0  0  0  0  0  0  0  0
    1.8124   10.1563   -2.4780 H   0  0  0  0  0  0  0  0  0  0  0  0
    3.2065   10.8330   -1.5239 H   0  0  0  0  0  0  0  0  0  0  0  0
    2.5272    8.5907   -0.7289 H   0  0  0  0  0  0  0  0  0  0  0  0
    2.3115    9.8789    0.5198 H   0  0  0  0  0  0  0  0  0  0  0  0
    0.3953    8.4350    0.5643 H   0  0  0  0  0  0  0  0  0  0  0  0
    0.0650    9.1300   -2.2130 H   0  0  0  0  0  0  0  0  0  0  0  0
   -0.5508   10.1080    2.1625 H   0  0  0  0  0  0  0  0  0  0  0  0
    0.9118   10.9752    1.5832 H   0  0  0  0  0  0  0  0  0  0  0  0
   -0.6822   11.8033    1.5832 H   0  0  0  0  0  0  0  0  0  0  0  0
   -2.2676    9.7143    1.0115 H   0  0  0  0  0  0  0  0  0  0  0  0
   -2.5353   10.5718   -0.5440 H   0  0  0  0  0  0  0  0  0  0  0  0
   -1.9638    8.8689   -0.5440 H   0  0  0  0  0  0  0  0  0  0  0  0
    1.8901   11.3314   -3.6306 H   0  0  0  0  0  0  0  0  0  0  0  0
    0.7699   12.6012   -4.2302 H   0  0  0  0  0  0  0  0  0  0  0  0
    2.5422   12.8941   -4.2302 H   0  0  0  0  0  0  0  0  0  0  0  0
    3.6686   12.8554   -1.5561 H   0  0  0  0  0  0  0  0  0  0  0  0
    3.3430   14.0999   -2.8906 H   0  0  0  0  0  0  0  0  0  0  0  0
    2.8435   14.4046    0.0829 H   0  0  0  0  0  0  0  0  0  0  0  0
    4.0282   15.2868   -0.9585 H   0  0  0  0  0  0  0  0  0  0  0  0
    2.8750   17.4078   -2.5203 H   0  0  0  0  0  0  0  0  0  0  0  0
    2.9537   15.7546   -3.2184 H   0  0  0  0  0  0  0  0  0  0  0  0
    1.4002   16.6565   -3.2184 H   0  0  0  0  0  0  0  0  0  0  0  0
  1  2  1  0
  2  3  1  0
  3  4  1  0
  4  5  1  0
  5  6  1  0
  6  7  1  0
  7  8  1  0
  7  9  1  0
  2 10  1  0
 10 11  1  0
 11 12  1  0
 12 13  1  0
 13 14  1  1
 13 15  1  0
 15 16  1  0
 16 17  1  0
 17 18  2  0
 18 19  1  0
 19 20  1  0
 20 21  1  0
 21 22  1  0
 22 23  1  0
 22 24  1  0
 24 25  1  0
 24 26  1  0
 19 27  1  0
 27 28  1  6
 27 29  1  0
 29 30  1  0
 30 31  1  0
 31 32  1  6
  7  5  1  0
 31 10  1  0
 31 13  1  0
 27 15  1  0
 24 18  1  0
  1 33  1  0
  1 34  1  0
  1 35  1  0
  2 36  1  6
  3 37  1  0
  3 38  1  0
  4 39  1  0
  4 40  1  0
  5 41  1  1
  8 42  1  0
  8 43  1  0
  8 44  1  0
  9 45  1  0
  9 46  1  0
  9 47  1  0
 10 48  1  1
 11 49  1  0
 11 50  1  0
 12 51  1  0
 12 52  1  0
 14 53  1  0
 14 54  1  0
 14 55  1  0
 15 56  1  6
 16 57  1  0
 16 58  1  0
 17 59  1  0
 19 60  1  1
 20 61  1  0
 20 62  1  0
 21 63  1  0
 21 64  1  0
 22 65  1  1
 23 66  1  0
 25 67  1  0
 25 68  1  0
 25 69  1  0
 26 70  1  0
 26 71  1  0
 26 72  1  0
 28 73  1  0
 28 74  1  0
 28 75  1  0
 29 76  1  0
 29 77  1  0
 30 78  1  0
 30 79  1  0
 32 80  1  0
 32 81  1  0
 32 82  1  0
M  END
>  <meeko>  (2) 
{"is_sidechain": [false], "intermolecular_energy": 2.731, "internal_energy": -0.839}

$$$$
EPH_relaxed_0001_pdb2pqr_Repair_268_r2_0001_out
     RDKit          3D

 82 86  0  0  0  0  0  0  0  0999 V2000
    2.3170   18.0920   -2.7000 C   0  0  0  0  0  0  0  0  0  0  0  0
    1.0400   17.6940   -1.9540 C   0  0  2  0  0  0  0  0  0  0  0  0
    1.2230   17.7430   -0.4240 C   0  0  0  0  0  0  0  0  0  0  0  0
    0.8890   19.1040    0.1920 C   0  0  0  0  0  0  0  0  0  0  0  0
   -0.5500   19.1880    0.6040 C   0  0  2  0  0  0  0  0  0  0  0  0
   -1.4240   18.2840   -0.0840 O   0  0  0  0  0  0  0  0  0  0  0  0
   -1.6550   19.6840   -0.3100 C   0  0  0  0  0  0  0  0  0  0  0  0
   -1.3680   20.1300   -1.7100 C   0  0  0  0  0  0  0  0  0  0  0  0
   -2.9190   20.1940    0.3070 C   0  0  0  0  0  0  0  0  0  0  0  0
    0.6020   16.2980   -2.3820 C   0  0  1  0  0  0  0  0  0  0  0  0
    0.6990   16.0850   -3.9160 C   0  0  0  0  0  0  0  0  0  0  0  0
    1.1100   14.6070   -4.1380 C   0  0  0  0  0  0  0  0  0  0  0  0
    0.9140   13.9360   -2.7580 C   0  0  1  0  0  0  0  0  0  0  0  0
   -0.6140   13.6300   -2.6740 C   0  0  0  0  0  0  0  0  0  0  0  0
    1.7740   12.6600   -2.4810 C   0  0  2  0  0  0  0  0  0  0  0  0
    1.5010   11.4720   -3.4200 C   0  0  0  0  0  0  0  0  0  0  0  0
    0.4480   10.5210   -2.9550 C   0  0  0  0  0  0  0  0  0  0  0  0
   -0.0480   10.4540   -1.7050 C   0  0  0  0  0  0  0  0  0  0  0  0
    0.5230   11.3300   -0.5830 C   0  0  1  0  0  0  0  0  0  0  0  0
    0.7570   10.4620    0.6820 C   0  0  0  0  0  0  0  0  0  0  0  0
   -0.4950    9.7050    1.1130 C   0  0  0  0  0  0  0  0  0  0  0  0
   -0.9990    8.8020   -0.0100 C   0  0  2  0  0  0  0  0  0  0  0  0
   -0.0390    7.7630   -0.2320 O   0  0  0  0  0  0  0  0  0  0  0  0
   -1.2610    9.5640   -1.3390 C   0  0  0  0  0  0  0  0  0  0  0  0
   -2.5030   10.4760   -1.1790 C   0  0  0  0  0  0  0  0  0  0  0  0
   -1.6280    8.5170   -2.4250 C   0  0  0  0  0  0  0  0  0  0  0  0
    1.7920   12.2070   -0.9650 C   0  0  1  0  0  0  0  0  0  0  0  0
    3.0940   11.3740   -0.7640 C   0  0  0  0  0  0  0  0  0  0  0  0
    1.8890   13.4280    0.0240 C   0  0  0  0  0  0  0  0  0  0  0  0
    1.1130   14.7010   -0.3650 C   0  0  0  0  0  0  0  0  0  0  0  0
    1.4020   15.0970   -1.8160 C   0  0  2  0  0  0  0  0  0  0  0  0
    2.9280   15.4320   -1.9260 C   0  0  0  0  0  0  0  0  0  0  0  0
    3.1050   18.3376   -1.9729 H   0  0  0  0  0  0  0  0  0  0  0  0
    2.6488   17.2547   -3.3315 H   0  0  0  0  0  0  0  0  0  0  0  0
    2.1143   18.9696   -3.3315 H   0  0  0  0  0  0  0  0  0  0  0  0
    0.2611   18.4248   -2.2170 H   0  0  0  0  0  0  0  0  0  0  0  0
    0.5658   16.9861    0.0289 H   0  0  0  0  0  0  0  0  0  0  0  0
    2.2868   17.5504   -0.2210 H   0  0  0  0  0  0  0  0  0  0  0  0
    1.5230   19.2598    1.0773 H   0  0  0  0  0  0  0  0  0  0  0  0
    1.0742   19.8786   -0.5668 H   0  0  0  0  0  0  0  0  0  0  0  0
   -0.2639   19.4602    1.6307 H   0  0  0  0  0  0  0  0  0  0  0  0
   -0.7729   21.0548   -1.6855 H   0  0  0  0  0  0  0  0  0  0  0  0
   -0.8048   19.3454   -2.2366 H   0  0  0  0  0  0  0  0  0  0  0  0
   -2.3154   20.3175   -2.2366 H   0  0  0  0  0  0  0  0  0  0  0  0
   -2.8321   20.1590    1.4030 H   0  0  0  0  0  0  0  0  0  0  0  0
   -3.0910   21.2319   -0.0142 H   0  0  0  0  0  0  0  0  0  0  0  0
   -3.7631   19.5661   -0.0142 H   0  0  0  0  0  0  0  0  0  0  0  0
   -0.4208   16.2936   -1.9773 H   0  0  0  0  0  0  0  0  0  0  0  0
   -0.2748   16.2822   -4.3880 H   0  0  0  0  0  0  0  0  0  0  0  0
    1.4336   16.7704   -4.3639 H   0  0  0  0  0  0  0  0  0  0  0  0
    0.4663   14.1344   -4.8945 H   0  0  0  0  0  0  0  0  0  0  0  0
    2.1425   14.5118   -4.5053 H   0  0  0  0  0  0  0  0  0  0  0  0
   -0.9183   13.5691   -1.6187 H   0  0  0  0  0  0  0  0  0  0  0  0
   -1.1767   14.4333   -3.1721 H   0  0  0  0  0  0  0  0  0  0  0  0
   -0.8240   12.6720   -3.1721 H   0  0  0  0  0  0  0  0  0  0  0  0
    2.7904   13.0038   -2.7232 H   0  0  0  0  0  0  0  0  0  0  0  0
    1.1893   11.8741   -4.3952 H   0  0  0  0  0  0  0  0  0  0  0  0
    2.4364   10.8946   -3.4605 H   0  0  0  0  0  0  0  0  0  0  0  0
    0.0434    9.8158   -3.6959 H   0  0  0  0  0  0  0  0  0  0  0  0
   -0.2398   12.0949   -0.3757 H   0  0  0  0  0  0  0  0  0  0  0  0
    1.5528    9.7336    0.4673 H   0  0  0  0  0  0  0  0  0  0  0  0
    1.0370   11.1382    1.5032 H   0  0  0  0  0  0  0  0  0  0  0  0
   -0.2581    9.0881    1.9924 H   0  0  0  0  0  0  0  0  0  0  0  0
   -1.2809   10.4351    1.3565 H   0  0  0  0  0  0  0  0  0  0  0  0
   -1.9667    8.3877    0.3093 H   0  0  0  0  0  0  0  0  0  0  0  0
   -0.5210    6.9190   -0.2630 H   0  0  0  0  0  0  0  0  0  0  0  0
   -2.7106   10.6285   -0.1096 H   0  0  0  0  0  0  0  0  0  0  0  0
   -2.3085   11.4475   -1.6569 H   0  0  0  0  0  0  0  0  0  0  0  0
   -3.3717    9.9996   -1.6569 H   0  0  0  0  0  0  0  0  0  0  0  0
   -1.9547    7.5851   -1.9404 H   0  0  0  0  0  0  0  0  0  0  0  0
   -2.4423    8.9091   -3.0521 H   0  0  0  0  0  0  0  0  0  0  0  0
   -0.7471    8.3149   -3.0521 H   0  0  0  0  0  0  0  0  0  0  0  0
    3.2876   11.2501    0.3117 H   0  0  0  0  0  0  0  0  0  0  0  0
    2.9726   10.3854   -1.2309 H   0  0  0  0  0  0  0  0  0  0  0  0
    3.9406   11.8986   -1.2309 H   0  0  0  0  0  0  0  0  0  0  0  0
    1.5122   13.0946    1.0022 H   0  0  0  0  0  0  0  0  0  0  0  0
    2.9487   13.7228    0.0140 H   0  0  0  0  0  0  0  0  0  0  0  0
    0.0350   14.5144   -0.2508 H   0  0  0  0  0  0  0  0  0  0  0  0
    1.4334   15.5221    0.2932 H   0  0  0  0  0  0  0  0  0  0  0  0
    3.3564   15.5260   -0.9172 H   0  0  0  0  0  0  0  0  0  0  0  0
    3.4423   14.6254   -2.4690 H   0  0  0  0  0  0  0  0  0  0  0  0
    3.0571   16.3799   -2.4690 H   0  0  0  0  0  0  0  0  0  0  0  0
  1  2  1  0
  2  3  1  0
  3  4  1  0
  4  5  1  0
  5  6  1  0
  6  7  1  0
  7  8  1  0
  7  9  1  0
  2 10  1  0
 10 11  1  0
 11 12  1  0
 12 13  1  0
 13 14  1  1
 13 15  1  0
 15 16  1  0
 16 17  1  0
 17 18  2  0
 18 19  1  0
 19 20  1  0
 20 21  1  0
 21 22  1  0
 22 23  1  0
 22 24  1  0
 24 25  1  0
 24 26  1  0
 19 27  1  0
 27 28  1  6
 27 29  1  0
 29 30  1  0
 30 31  1  0
 31 32  1  1
  7  5  1  0
 31 10  1  0
 31 13  1  0
 27 15  1  0
 24 18  1  0
  1 33  1  0
  1 34  1  0
  1 35  1  0
  2 36  1  1
  3 37  1  0
  3 38  1  0
  4 39  1  0
  4 40  1  0
  5 41  1  1
  8 42  1  0
  8 43  1  0
  8 44  1  0
  9 45  1  0
  9 46  1  0
  9 47  1  0
 10 48  1  1
 11 49  1  0
 11 50  1  0
 12 51  1  0
 12 52  1  0
 14 53  1  0
 14 54  1  0
 14 55  1  0
 15 56  1  6
 16 57  1  0
 16 58  1  0
 17 59  1  0
 19 60  1  1
 20 61  1  0
 20 62  1  0
 21 63  1  0
 21 64  1  0
 22 65  1  1
 23 66  1  0
 25 67  1  0
 25 68  1  0
 25 69  1  0
 26 70  1  0
 26 71  1  0
 26 72  1  0
 28 73  1  0
 28 74  1  0
 28 75  1  0
 29 76  1  0
 29 77  1  0
 30 78  1  0
 30 79  1  0
 32 80  1  0
 32 81  1  0
 32 82  1  0
M  END
>  <meeko>  (3) 
{"is_sidechain": [false], "intermolecular_energy": 2.731, "internal_energy": -0.839}

$$$$
EPH_relaxed_0001_pdb2pqr_Repair_268_r2_0001_out
     RDKit          3D

 82 86  0  0  0  0  0  0  0  0999 V2000
    0.4190   18.3850   -0.0320 C   0  0  0  0  0  0  0  0  0  0  0  0
    1.5030   17.3240   -0.2490 C   0  0  2  0  0  0  0  0  0  0  0  0
    2.7170   17.8840   -1.0170 C   0  0  0  0  0  0  0  0  0  0  0  0
    3.9500   18.1110   -0.1380 C   0  0  0  0  0  0  0  0  0  0  0  0
    3.5730   18.5890    1.2320 C   0  0  2  0  0  0  0  0  0  0  0  0
    3.7860   19.9880    1.4570 O   0  0  0  0  0  0  0  0  0  0  0  0
    4.5810   19.0910    2.2490 C   0  0  0  0  0  0  0  0  0  0  0  0
    6.0440   19.1390    1.9390 C   0  0  0  0  0  0  0  0  0  0  0  0
    4.2050   19.0710    3.6980 C   0  0  0  0  0  0  0  0  0  0  0  0
    0.9190   16.1310   -0.9960 C   0  0  1  0  0  0  0  0  0  0  0  0
    0.7770   16.3910   -2.5200 C   0  0  0  0  0  0  0  0  0  0  0  0
    1.0570   15.0420   -3.2310 C   0  0  0  0  0  0  0  0  0  0  0  0
    1.0220   13.9890   -2.0990 C   0  0  1  0  0  0  0  0  0  0  0  0
   -0.4940   13.6970   -1.8690 C   0  0  0  0  0  0  0  0  0  0  0  0
    1.8300   12.6750   -2.3520 C   0  0  2  0  0  0  0  0  0  0  0  0
    1.3480   11.8310   -3.5450 C   0  0  0  0  0  0  0  0  0  0  0  0
    0.3160   10.8010   -3.2220 C   0  0  0  0  0  0  0  0  0  0  0  0
    0.0040   10.3680   -1.9870 C   0  0  0  0  0  0  0  0  0  0  0  0
    0.7870   10.8530   -0.7600 C   0  0  1  0  0  0  0  0  0  0  0  0
    1.1480    9.6400    0.1370 C   0  0  0  0  0  0  0  0  0  0  0  0
   -0.0740    8.8090    0.5170 C   0  0  0  0  0  0  0  0  0  0  0  0
   -0.7920    8.2960   -0.7290 C   0  0  2  0  0  0  0  0  0  0  0  0
    0.0570    7.3580   -1.3970 O   0  0  0  0  0  0  0  0  0  0  0  0
   -1.1970    9.4290   -1.7130 C   0  0  0  0  0  0  0  0  0  0  0  0
   -2.3410   10.2700   -1.0960 C   0  0  0  0  0  0  0  0  0  0  0  0
   -1.7840    8.7660   -2.9880 C   0  0  0  0  0  0  0  0  0  0  0  0
    2.0400   11.7840   -1.0610 C   0  0  1  0  0  0  0  0  0  0  0  0
    3.3020   10.9080   -1.3250 C   0  0  0  0  0  0  0  0  0  0  0  0
    2.3580   12.6470    0.2160 C   0  0  0  0  0  0  0  0  0  0  0  0
    1.6160   13.9910    0.3500 C   0  0  0  0  0  0  0  0  0  0  0  0
    1.7140   14.8020   -0.9460 C   0  0  2  0  0  0  0  0  0  0  0  0
    3.2270   15.1300   -1.1910 C   0  0  0  0  0  0  0  0  0  0  0  0
    0.2646   18.5362    1.0466 H   0  0  0  0  0  0  0  0  0  0  0  0
    0.7354   19.3321   -0.4934 H   0  0  0  0  0  0  0  0  0  0  0  0
   -0.5211   18.0484   -0.4934 H   0  0  0  0  0  0  0  0  0  0  0  0
    1.8580   17.0047    0.7420 H   0  0  0  0  0  0  0  0  0  0  0  0
    2.9836   17.1720   -1.8120 H   0  0  0  0  0  0  0  0  0  0  0  0
    2.4207   18.8658   -1.4149 H   0  0  0  0  0  0  0  0  0  0  0  0
    4.5016   17.1638   -0.0460 H   0  0  0  0  0  0  0  0  0  0  0  0
    4.5719   18.8844   -0.6123 H   0  0  0  0  0  0  0  0  0  0  0  0
    2.7683   17.8419    1.2974 H   0  0  0  0  0  0  0  0  0  0  0  0
    6.6173   19.1578    2.8776 H   0  0  0  0  0  0  0  0  0  0  0  0
    6.3246   18.2496    1.3557 H   0  0  0  0  0  0  0  0  0  0  0  0
    6.2657   20.0449    1.3557 H   0  0  0  0  0  0  0  0  0  0  0  0
    5.1153   19.1194    4.3137 H   0  0  0  0  0  0  0  0  0  0  0  0
    3.5640   19.9363    3.9225 H   0  0  0  0  0  0  0  0  0  0  0  0
    3.6594   18.1426    3.9225 H   0  0  0  0  0  0  0  0  0  0  0  0
   -0.0317   16.0216   -0.4536 H   0  0  0  0  0  0  0  0  0  0  0  0
   -0.2409   16.7376   -2.7521 H   0  0  0  0  0  0  0  0  0  0  0  0
    1.4796   17.1680   -2.8556 H   0  0  0  0  0  0  0  0  0  0  0  0
    0.2815   14.8306   -3.9819 H   0  0  0  0  0  0  0  0  0  0  0  0
    2.0171   15.0451   -3.7679 H   0  0  0  0  0  0  0  0  0  0  0  0
   -0.7001   13.6573   -0.7892 H   0  0  0  0  0  0  0  0  0  0  0  0
   -1.0950   14.4959   -2.3279 H   0  0  0  0  0  0  0  0  0  0  0  0
   -0.7553   12.7320   -2.3279 H   0  0  0  0  0  0  0  0  0  0  0  0
    2.8198   13.0594   -2.6391 H   0  0  0  0  0  0  0  0  0  0  0  0
    0.9232   12.5142   -4.2952 H   0  0  0  0  0  0  0  0  0  0  0  0
    2.2291   11.2776   -3.9020 H   0  0  0  0  0  0  0  0  0  0  0  0
   -0.2356   10.3591   -4.0649 H   0  0  0  0  0  0  0  0  0  0  0  0
    0.1119   11.5306   -0.2168 H   0  0  0  0  0  0  0  0  0  0  0  0
    1.8560    8.9975   -0.4070 H   0  0  0  0  0  0  0  0  0  0  0  0
    1.5879   10.0311    1.0663 H   0  0  0  0  0  0  0  0  0  0  0  0
    0.2486    7.9514    1.1257 H   0  0  0  0  0  0  0  0  0  0  0  0
   -0.7682    9.4444    1.0865 H   0  0  0  0  0  0  0  0  0  0  0  0
   -1.7268    7.8196   -0.3985 H   0  0  0  0  0  0  0  0  0  0  0  0
   -0.0820    6.4890   -0.9830 H   0  0  0  0  0  0  0  0  0  0  0  0
   -2.2789   10.2244    0.0013 H   0  0  0  0  0  0  0  0  0  0  0  0
   -2.2465   11.3152   -1.4254 H   0  0  0  0  0  0  0  0  0  0  0  0
   -3.3104    9.8680   -1.4254 H   0  0  0  0  0  0  0  0  0  0  0  0
   -2.4873    7.9716   -2.6976 H   0  0  0  0  0  0  0  0  0  0  0  0
   -2.3128    9.5236   -3.5850 H   0  0  0  0  0  0  0  0  0  0  0  0
   -0.9679    8.3329   -3.5850 H   0  0  0  0  0  0  0  0  0  0  0  0
    3.7432   10.6018   -0.3650 H   0  0  0  0  0  0  0  0  0  0  0  0
    3.0146   10.0142   -1.8982 H   0  0  0  0  0  0  0  0  0  0  0  0
    4.0389   11.4898   -1.8982 H   0  0  0  0  0  0  0  0  0  0  0  0
    2.1081   12.0397    1.0985 H   0  0  0  0  0  0  0  0  0  0  0  0
    3.4213   12.9136    0.1252 H   0  0  0  0  0  0  0  0  0  0  0  0
    0.5567   13.7967    0.5738 H   0  0  0  0  0  0  0  0  0  0  0  0
    2.0809   14.5693    1.1621 H   0  0  0  0  0  0  0  0  0  0  0  0
    3.7394   15.2411   -0.2240 H   0  0  0  0  0  0  0  0  0  0  0  0
    3.6920   14.3118   -1.7605 H   0  0  0  0  0  0  0  0  0  0  0  0
    3.3114   16.0673   -1.7605 H   0  0  0  0  0  0  0  0  0  0  0  0
  1  2  1  0
  2  3  1  0
  3  4  1  0
  4  5  1  0
  5  6  1  0
  6  7  1  0
  7  8  1  0
  7  9  1  0
  2 10  1  0
 10 11  1  0
 11 12  1  0
 12 13  1  0
 13 14  1  1
 13 15  1  0
 15 16  1  0
 16 17  1  0
 17 18  2  0
 18 19  1  0
 19 20  1  0
 20 21  1  0
 21 22  1  0
 22 23  1  0
 22 24  1  0
 24 25  1  0
 24 26  1  0
 19 27  1  0
 27 28  1  6
 27 29  1  0
 29 30  1  0
 30 31  1  0
 31 32  1  6
  7  5  1  0
 31 10  1  0
 31 13  1  0
 27 15  1  0
 24 18  1  0
  1 33  1  0
  1 34  1  0
  1 35  1  0
  2 36  1  1
  3 37  1  0
  3 38  1  0
  4 39  1  0
  4 40  1  0
  5 41  1  1
  8 42  1  0
  8 43  1  0
  8 44  1  0
  9 45  1  0
  9 46  1  0
  9 47  1  0
 10 48  1  1
 11 49  1  0
 11 50  1  0
 12 51  1  0
 12 52  1  0
 14 53  1  0
 14 54  1  0
 14 55  1  0
 15 56  1  6
 16 57  1  0
 16 58  1  0
 17 59  1  0
 19 60  1  1
 20 61  1  0
 20 62  1  0
 21 63  1  0
 21 64  1  0
 22 65  1  1
 23 66  1  0
 25 67  1  0
 25 68  1  0
 25 69  1  0
 26 70  1  0
 26 71  1  0
 26 72  1  0
 28 73  1  0
 28 74  1  0
 28 75  1  0
 29 76  1  0
 29 77  1  0
 30 78  1  0
 30 79  1  0
 32 80  1  0
 32 81  1  0
 32 82  1  0
M  END
>  <meeko>  (4) 
{"is_sidechain": [false], "intermolecular_energy": 2.731, "internal_energy": -0.839}

$$$$
EPH_relaxed_0001_pdb2pqr_Repair_268_r2_0001_out
     RDKit          3D

 82 86  0  0  0  0  0  0  0  0999 V2000
   -5.1520    5.8280   -1.7330 C   0  0  0  0  0  0  0  0  0  0  0  0
   -5.4490    7.3290   -1.7980 C   0  0  2  0  0  0  0  0  0  0  0  0
   -5.2270    8.0240   -0.4400 C   0  0  0  0  0  0  0  0  0  0  0  0
   -4.1850    9.1460   -0.4860 C   0  0  0  0  0  0  0  0  0  0  0  0
   -2.8160    8.6180   -0.7920 C   0  0  2  0  0  0  0  0  0  0  0  0
   -1.8160    8.9520    0.1790 O   0  0  0  0  0  0  0  0  0  0  0  0
   -1.6350    9.5070   -1.1330 C   0  0  0  0  0  0  0  0  0  0  0  0
   -1.7690   10.9970   -1.1880 C   0  0  0  0  0  0  0  0  0  0  0  0
   -0.4860    8.9120   -1.8870 C   0  0  0  0  0  0  0  0  0  0  0  0
   -6.8790    7.5550   -2.2720 C   0  0  1  0  0  0  0  0  0  0  0  0
   -7.1790    6.8550   -3.6240 C   0  0  0  0  0  0  0  0  0  0  0  0
   -8.6550    6.3850   -3.5670 C   0  0  0  0  0  0  0  0  0  0  0  0
   -9.2490    7.1120   -2.3370 C   0  0  1  0  0  0  0  0  0  0  0  0
   -9.5940    8.5460   -2.8480 C   0  0  0  0  0  0  0  0  0  0  0  0
  -10.4810    6.4290   -1.6590 C   0  0  2  0  0  0  0  0  0  0  0  0
  -11.7290    6.3020   -2.5490 C   0  0  0  0  0  0  0  0  0  0  0  0
  -12.6820    7.4490   -2.4780 C   0  0  0  0  0  0  0  0  0  0  0  0
  -12.6900    8.4020   -1.5270 C   0  0  0  0  0  0  0  0  0  0  0  0
  -11.7330    8.3280   -0.3300 C   0  0  1  0  0  0  0  0  0  0  0  0
  -12.5170    8.6140    0.9770 C   0  0  0  0  0  0  0  0  0  0  0  0
  -13.2840    9.9310    0.9240 C   0  0  0  0  0  0  0  0  0  0  0  0
  -14.2670    9.9440   -0.2450 C   0  0  2  0  0  0  0  0  0  0  0  0
  -15.2870    8.9710    0.0010 O   0  0  0  0  0  0  0  0  0  0  0  0
  -13.5920    9.6580   -1.6150 C   0  0  0  0  0  0  0  0  0  0  0  0
  -12.7090   10.8630   -2.0220 C   0  0  0  0  0  0  0  0  0  0  0  0
  -14.7110    9.5580   -2.6870 C   0  0  0  0  0  0  0  0  0  0  0  0
  -10.8430    7.0150   -0.2340 C   0  0  1  0  0  0  0  0  0  0  0  0
  -11.6250    5.8970    0.5210 C   0  0  0  0  0  0  0  0  0  0  0  0
   -9.5640    7.3230    0.6300 C   0  0  0  0  0  0  0  0  0  0  0  0
   -8.3390    7.8850   -0.1180 C   0  0  0  0  0  0  0  0  0  0  0  0
   -8.0210    7.0430   -1.3580 C   0  0  2  0  0  0  0  0  0  0  0  0
   -7.6480    5.6010   -0.8740 C   0  0  0  0  0  0  0  0  0  0  0  0
   -5.0894    5.5118   -0.6813 H   0  0  0  0  0  0  0  0  0  0  0  0
   -5.9577    5.2727   -2.2355 H   0  0  0  0  0  0  0  0  0  0  0  0
   -4.1956    5.6214   -2.2355 H   0  0  0  0  0  0  0  0  0  0  0  0
   -4.7449    7.7754   -2.5155 H   0  0  0  0  0  0  0  0  0  0  0  0
   -6.1844    8.4524   -0.1084 H   0  0  0  0  0  0  0  0  0  0  0  0
   -4.8466    7.2600    0.2540 H   0  0  0  0  0  0  0  0  0  0  0  0
   -4.4716    9.8671   -1.2657 H   0  0  0  0  0  0  0  0  0  0  0  0
   -4.1543    9.6267    0.5029 H   0  0  0  0  0  0  0  0  0  0  0  0
   -3.2412    7.7331   -1.2882 H   0  0  0  0  0  0  0  0  0  0  0  0
   -1.8052   11.3999   -0.1651 H   0  0  0  0  0  0  0  0  0  0  0  0
   -0.9056   11.4234   -1.7197 H   0  0  0  0  0  0  0  0  0  0  0  0
   -2.6946   11.2625   -1.7197 H   0  0  0  0  0  0  0  0  0  0  0  0
    0.2590    8.5262   -1.1756 H   0  0  0  0  0  0  0  0  0  0  0  0
   -0.8495    8.0888   -2.5196 H   0  0  0  0  0  0  0  0  0  0  0  0
   -0.0235    9.6839   -2.5196 H   0  0  0  0  0  0  0  0  0  0  0  0
   -6.8890    8.6544   -2.3071 H   0  0  0  0  0  0  0  0  0  0  0  0
   -7.0383    7.5612   -4.4555 H   0  0  0  0  0  0  0  0  0  0  0  0
   -6.5001    6.0051   -3.7877 H   0  0  0  0  0  0  0  0  0  0  0  0
   -9.1899    6.6730   -4.4840 H   0  0  0  0  0  0  0  0  0  0  0  0
   -8.7417    5.2913   -3.4872 H   0  0  0  0  0  0  0  0  0  0  0  0
   -9.7545    9.2129   -1.9881 H   0  0  0  0  0  0  0  0  0  0  0  0
   -8.7621    8.9279   -3.4580 H   0  0  0  0  0  0  0  0  0  0  0  0
  -10.5086    8.5077   -3.4580 H   0  0  0  0  0  0  0  0  0  0  0  0
  -10.1234    5.4010   -1.5001 H   0  0  0  0  0  0  0  0  0  0  0  0
  -11.3940    6.2024   -3.5920 H   0  0  0  0  0  0  0  0  0  0  0  0
  -12.2798    5.4252   -2.1777 H   0  0  0  0  0  0  0  0  0  0  0  0
  -13.4421    7.5217   -3.2698 H   0  0  0  0  0  0  0  0  0  0  0  0
  -10.9800    9.1132   -0.4928 H   0  0  0  0  0  0  0  0  0  0  0  0
  -13.2329    7.7958    1.1447 H   0  0  0  0  0  0  0  0  0  0  0  0
  -11.7855    8.6869    1.7953 H   0  0  0  0  0  0  0  0  0  0  0  0
  -13.8406   10.0614    1.8638 H   0  0  0  0  0  0  0  0  0  0  0  0
  -12.5640   10.7511    0.7862 H   0  0  0  0  0  0  0  0  0  0  0  0
  -14.6909   10.9570   -0.3095 H   0  0  0  0  0  0  0  0  0  0  0  0
  -15.1770    8.2570   -0.6490 H   0  0  0  0  0  0  0  0  0  0  0  0
  -12.3388   11.3682   -1.1178 H   0  0  0  0  0  0  0  0  0  0  0  0
  -11.8560   10.5075   -2.6187 H   0  0  0  0  0  0  0  0  0  0  0  0
  -13.3049   11.5693   -2.6187 H   0  0  0  0  0  0  0  0  0  0  0  0
  -15.6883    9.4707   -2.1898 H   0  0  0  0  0  0  0  0  0  0  0  0
  -14.6986   10.4608   -3.3153 H   0  0  0  0  0  0  0  0  0  0  0  0
  -14.5387    8.6717   -3.3153 H   0  0  0  0  0  0  0  0  0  0  0  0
  -11.5211    6.0456    1.6060 H   0  0  0  0  0  0  0  0  0  0  0  0
  -12.6888    5.9432    0.2448 H   0  0  0  0  0  0  0  0  0  0  0  0
  -11.2168    4.9136    0.2448 H   0  0  0  0  0  0  0  0  0  0  0  0
   -9.8501    8.0564    1.3983 H   0  0  0  0  0  0  0  0  0  0  0  0
   -9.2396    6.3477    1.0219 H   0  0  0  0  0  0  0  0  0  0  0  0
   -8.5503    8.9187   -0.4292 H   0  0  0  0  0  0  0  0  0  0  0  0
   -7.4715    7.8565    0.5577 H   0  0  0  0  0  0  0  0  0  0  0  0
   -7.6409    5.5737    0.2256 H   0  0  0  0  0  0  0  0  0  0  0  0
   -8.3901    4.8833   -1.2538 H   0  0  0  0  0  0  0  0  0  0  0  0
   -6.6510    5.3332   -1.2538 H   0  0  0  0  0  0  0  0  0  0  0  0
  1  2  1  0
  2  3  1  0
  3  4  1  0
  4  5  1  0
  5  6  1  0
  6  7  1  0
  7  8  1  0
  7  9  1  0
  2 10  1  0
 10 11  1  0
 11 12  1  0
 12 13  1  0
 13 14  1  6
 13 15  1  0
 15 16  1  0
 16 17  1  0
 17 18  2  0
 18 19  1  0
 19 20  1  0
 20 21  1  0
 21 22  1  0
 22 23  1  0
 22 24  1  0
 24 25  1  0
 24 26  1  0
 19 27  1  0
 27 28  1  1
 27 29  1  0
 29 30  1  0
 30 31  1  0
 31 32  1  1
  7  5  1  0
 31 10  1  0
 31 13  1  0
 27 15  1  0
 24 18  1  0
  1 33  1  0
  1 34  1  0
  1 35  1  0
  2 36  1  6
  3 37  1  0
  3 38  1  0
  4 39  1  0
  4 40  1  0
  5 41  1  6
  8 42  1  0
  8 43  1  0
  8 44  1  0
  9 45  1  0
  9 46  1  0
  9 47  1  0
 10 48  1  6
 11 49  1  0
 11 50  1  0
 12 51  1  0
 12 52  1  0
 14 53  1  0
 14 54  1  0
 14 55  1  0
 15 56  1  1
 16 57  1  0
 16 58  1  0
 17 59  1  0
 19 60  1  6
 20 61  1  0
 20 62  1  0
 21 63  1  0
 21 64  1  0
 22 65  1  6
 23 66  1  0
 25 67  1  0
 25 68  1  0
 25 69  1  0
 26 70  1  0
 26 71  1  0
 26 72  1  0
 28 73  1  0
 28 74  1  0
 28 75  1  0
 29 76  1  0
 29 77  1  0
 30 78  1  0
 30 79  1  0
 32 80  1  0
 32 81  1  0
 32 82  1  0
M  END
>  <meeko>  (5) 
{"is_sidechain": [false], "intermolecular_energy": 2.731, "internal_energy": -0.839}

$$$$
EPH_relaxed_0001_pdb2pqr_Repair_268_r2_0001_out
     RDKit          3D

 82 86  0  0  0  0  0  0  0  0999 V2000
    4.0320   17.8460   -0.0480 C   0  0  0  0  0  0  0  0  0  0  0  0
    2.6560   18.4220   -0.3950 C   0  0  2  0  0  0  0  0  0  0  0  0
    2.1340   19.3770    0.6970 C   0  0  0  0  0  0  0  0  0  0  0  0
    0.7260   19.0360    1.1900 C   0  0  0  0  0  0  0  0  0  0  0  0
   -0.3210   19.8330    0.4720 C   0  0  2  0  0  0  0  0  0  0  0  0
   -1.4540   20.1930    1.2730 O   0  0  0  0  0  0  0  0  0  0  0  0
   -1.7120   19.3070    0.1710 C   0  0  0  0  0  0  0  0  0  0  0  0
   -2.1320   17.9310    0.5820 C   0  0  0  0  0  0  0  0  0  0  0  0
   -2.4910   19.9390   -0.9400 C   0  0  0  0  0  0  0  0  0  0  0  0
    1.6600   17.2900   -0.6170 C   0  0  1  0  0  0  0  0  0  0  0  0
    0.4600   17.7160   -1.5040 C   0  0  0  0  0  0  0  0  0  0  0  0
    0.0690   16.4780   -2.3520 C   0  0  0  0  0  0  0  0  0  0  0  0
    0.8280   15.3010   -1.6960 C   0  0  1  0  0  0  0  0  0  0  0  0
   -0.0480   14.8930   -0.4700 C   0  0  0  0  0  0  0  0  0  0  0  0
    1.1340   14.0760   -2.6190 C   0  0  2  0  0  0  0  0  0  0  0  0
   -0.1050   13.3490   -3.1710 C   0  0  0  0  0  0  0  0  0  0  0  0
   -0.6150   12.2290   -2.3270 C   0  0  0  0  0  0  0  0  0  0  0  0
    0.0580   11.6360   -1.3230 C   0  0  0  0  0  0  0  0  0  0  0  0
    1.5100   12.0230   -1.0130 C   0  0  1  0  0  0  0  0  0  0  0  0
    2.3580   10.7380   -0.8240 C   0  0  0  0  0  0  0  0  0  0  0  0
    1.7690    9.7960    0.2220 C   0  0  0  0  0  0  0  0  0  0  0  0
    0.3460    9.3880   -0.1520 C   0  0  2  0  0  0  0  0  0  0  0  0
    0.3920    8.5870   -1.3370 O   0  0  0  0  0  0  0  0  0  0  0  0
   -0.6000   10.6010   -0.3780 C   0  0  0  0  0  0  0  0  0  0  0  0
   -0.8890   11.2950    0.9760 C   0  0  0  0  0  0  0  0  0  0  0  0
   -1.9620   10.0560   -0.8860 C   0  0  0  0  0  0  0  0  0  0  0  0
    2.1820   13.0560   -2.0160 C   0  0  1  0  0  0  0  0  0  0  0  0
    2.8080   12.2940   -3.2240 C   0  0  0  0  0  0  0  0  0  0  0  0
    3.3720   13.7830   -1.2840 C   0  0  0  0  0  0  0  0  0  0  0  0
    3.0240   15.0540   -0.4870 C   0  0  0  0  0  0  0  0  0  0  0  0
    2.1790   16.0150   -1.3280 C   0  0  2  0  0  0  0  0  0  0  0  0
    3.0420   16.4600   -2.5580 C   0  0  0  0  0  0  0  0  0  0  0  0
    4.1447   17.7988    1.0452 H   0  0  0  0  0  0  0  0  0  0  0  0
    4.1230   16.8342   -0.4700 H   0  0  0  0  0  0  0  0  0  0  0  0
    4.8166   18.4912   -0.4700 H   0  0  0  0  0  0  0  0  0  0  0  0
    2.7657   19.0073   -1.3199 H   0  0  0  0  0  0  0  0  0  0  0  0
    2.8221   19.3338    1.5541 H   0  0  0  0  0  0  0  0  0  0  0  0
    2.0839   20.3806    0.2495 H   0  0  0  0  0  0  0  0  0  0  0  0
    0.5382   17.9656    1.0199 H   0  0  0  0  0  0  0  0  0  0  0  0
    0.6690   19.2809    2.2609 H   0  0  0  0  0  0  0  0  0  0  0  0
    0.4419   20.3074   -0.1628 H   0  0  0  0  0  0  0  0  0  0  0  0
   -2.1518   17.8663    1.6799 H   0  0  0  0  0  0  0  0  0  0  0  0
   -3.1355   17.7198    0.1841 H   0  0  0  0  0  0  0  0  0  0  0  0
   -1.4175   17.1954    0.1841 H   0  0  0  0  0  0  0  0  0  0  0  0
   -3.2796   20.5788   -0.5171 H   0  0  0  0  0  0  0  0  0  0  0  0
   -1.8171   20.5488   -1.5597 H   0  0  0  0  0  0  0  0  0  0  0  0
   -2.9488   19.1539   -1.5597 H   0  0  0  0  0  0  0  0  0  0  0  0
    1.4057   17.0604    0.4283 H   0  0  0  0  0  0  0  0  0  0  0  0
   -0.3863   18.0257   -0.8732 H   0  0  0  0  0  0  0  0  0  0  0  0
    0.7270   18.5673   -2.1475 H   0  0  0  0  0  0  0  0  0  0  0  0
   -1.0173   16.3088   -2.3144 H   0  0  0  0  0  0  0  0  0  0  0  0
    0.3274   16.6011   -3.4141 H   0  0  0  0  0  0  0  0  0  0  0  0
    0.4846   15.1411    0.4600 H   0  0  0  0  0  0  0  0  0  0  0  0
   -1.0021   15.4394   -0.5030 H   0  0  0  0  0  0  0  0  0  0  0  0
   -0.2437   13.8111   -0.5030 H   0  0  0  0  0  0  0  0  0  0  0  0
    1.6138   14.5498   -3.4881 H   0  0  0  0  0  0  0  0  0  0  0  0
   -0.9126   14.0880   -3.2795 H   0  0  0  0  0  0  0  0  0  0  0  0
    0.2073   12.8951   -4.1231 H   0  0  0  0  0  0  0  0  0  0  0  0
   -1.6270   11.8562   -2.5436 H   0  0  0  0  0  0  0  0  0  0  0  0
    1.4792   12.5923   -0.0723 H   0  0  0  0  0  0  0  0  0  0  0  0
    2.4124   10.2070   -1.7858 H   0  0  0  0  0  0  0  0  0  0  0  0
    3.3546   11.0445   -0.4734 H   0  0  0  0  0  0  0  0  0  0  0  0
    2.3962    8.8948    0.2890 H   0  0  0  0  0  0  0  0  0  0  0  0
    1.7421   10.3181    1.1898 H   0  0  0  0  0  0  0  0  0  0  0  0
   -0.0676    8.8210    0.6950 H   0  0  0  0  0  0  0  0  0  0  0  0
   -0.2740    8.9350   -1.9540 H   0  0  0  0  0  0  0  0  0  0  0  0
   -0.6089   10.6223    1.8000 H   0  0  0  0  0  0  0  0  0  0  0  0
   -0.3026   12.2231    1.0449 H   0  0  0  0  0  0  0  0  0  0  0  0
   -1.9608   11.5326    1.0449 H   0  0  0  0  0  0  0  0  0  0  0  0
   -2.5988    9.8012   -0.0260 H   0  0  0  0  0  0  0  0  0  0  0  0
   -2.4598   10.8242   -1.4960 H   0  0  0  0  0  0  0  0  0  0  0  0
   -1.7925    9.1565   -1.4960 H   0  0  0  0  0  0  0  0  0  0  0  0
    3.4652   11.4941   -2.8522 H   0  0  0  0  0  0  0  0  0  0  0  0
    2.0062   11.8551   -3.8360 H   0  0  0  0  0  0  0  0  0  0  0  0
    3.3942   12.9953   -3.8360 H   0  0  0  0  0  0  0  0  0  0  0  0
    3.8212   13.0635   -0.5836 H   0  0  0  0  0  0  0  0  0  0  0  0
    4.0410   14.1219   -2.0887 H   0  0  0  0  0  0  0  0  0  0  0  0
    2.4582   14.7707    0.4128 H   0  0  0  0  0  0  0  0  0  0  0  0
    3.9600   15.5611   -0.2099 H   0  0  0  0  0  0  0  0  0  0  0  0
    3.9674   16.9372   -2.2032 H   0  0  0  0  0  0  0  0  0  0  0  0
    3.2938   15.5793   -3.1671 H   0  0  0  0  0  0  0  0  0  0  0  0
    2.4706   17.1759   -3.1671 H   0  0  0  0  0  0  0  0  0  0  0  0
  1  2  1  0
  2  3  1  0
  3  4  1  0
  4  5  1  0
  5  6  1  0
  6  7  1  0
  7  8  1  0
  7  9  1  0
  2 10  1  0
 10 11  1  0
 11 12  1  0
 12 13  1  0
 13 14  1  1
 13 15  1  0
 15 16  1  0
 16 17  1  0
 17 18  2  0
 18 19  1  0
 19 20  1  0
 20 21  1  0
 21 22  1  0
 22 23  1  0
 22 24  1  0
 24 25  1  0
 24 26  1  0
 19 27  1  0
 27 28  1  6
 27 29  1  0
 29 30  1  0
 30 31  1  0
 31 32  1  6
  7  5  1  0
 31 10  1  0
 31 13  1  0
 27 15  1  0
 24 18  1  0
  1 33  1  0
  1 34  1  0
  1 35  1  0
  2 36  1  6
  3 37  1  0
  3 38  1  0
  4 39  1  0
  4 40  1  0
  5 41  1  6
  8 42  1  0
  8 43  1  0
  8 44  1  0
  9 45  1  0
  9 46  1  0
  9 47  1  0
 10 48  1  1
 11 49  1  0
 11 50  1  0
 12 51  1  0
 12 52  1  0
 14 53  1  0
 14 54  1  0
 14 55  1  0
 15 56  1  6
 16 57  1  0
 16 58  1  0
 17 59  1  0
 19 60  1  1
 20 61  1  0
 20 62  1  0
 21 63  1  0
 21 64  1  0
 22 65  1  1
 23 66  1  0
 25 67  1  0
 25 68  1  0
 25 69  1  0
 26 70  1  0
 26 71  1  0
 26 72  1  0
 28 73  1  0
 28 74  1  0
 28 75  1  0
 29 76  1  0
 29 77  1  0
 30 78  1  0
 30 79  1  0
 32 80  1  0
 32 81  1  0
 32 82  1  0
M  END
>  <meeko>  (6) 
{"is_sidechain": [false], "intermolecular_energy": 2.731, "internal_energy": -0.839}

$$$$
EPH_relaxed_0001_pdb2pqr_Repair_268_r2_0001_out
     RDKit          3D

 82 86  0  0  0  0  0  0  0  0999 V2000
    0.4660    8.8260   -2.3850 C   0  0  0  0  0  0  0  0  0  0  0  0
    1.2030    9.9690   -3.0890 C   0  0  2  0  0  0  0  0  0  0  0  0
    2.7050    9.9920   -2.7390 C   0  0  0  0  0  0  0  0  0  0  0  0
    3.5780   10.6410   -3.8170 C   0  0  0  0  0  0  0  0  0  0  0  0
    4.9770   10.8710   -3.3330 C   0  0  2  0  0  0  0  0  0  0  0  0
    5.5890   12.0720   -3.8200 O   0  0  0  0  0  0  0  0  0  0  0  0
    6.1920   10.8380   -4.2410 C   0  0  0  0  0  0  0  0  0  0  0  0
    6.0640   10.5670   -5.7070 C   0  0  0  0  0  0  0  0  0  0  0  0
    7.5350   10.5840   -3.6300 C   0  0  0  0  0  0  0  0  0  0  0  0
    0.5630   11.3030   -2.7240 C   0  0  1  0  0  0  0  0  0  0  0  0
   -0.8190   11.1340   -2.0370 C   0  0  0  0  0  0  0  0  0  0  0  0
   -0.9410   12.2730   -0.9920 C   0  0  0  0  0  0  0  0  0  0  0  0
    0.2120   13.2450   -1.3380 C   0  0  1  0  0  0  0  0  0  0  0  0
   -0.3290   14.1040   -2.5230 C   0  0  0  0  0  0  0  0  0  0  0  0
    0.7360   14.1400   -0.1680 C   0  0  2  0  0  0  0  0  0  0  0  0
   -0.2980   15.1170    0.4190 C   0  0  0  0  0  0  0  0  0  0  0  0
   -0.3370   16.4650   -0.2220 C   0  0  0  0  0  0  0  0  0  0  0  0
    0.6100   16.9740   -1.0310 C   0  0  0  0  0  0  0  0  0  0  0  0
    1.9130   16.2090   -1.2980 C   0  0  1  0  0  0  0  0  0  0  0  0
    3.1190   17.1750   -1.1590 C   0  0  0  0  0  0  0  0  0  0  0  0
    2.9800   18.4140   -2.0380 C   0  0  0  0  0  0  0  0  0  0  0  0
    1.7020   19.1790   -1.7040 C   0  0  2  0  0  0  0  0  0  0  0  0
    1.8200   19.7170   -0.3830 O   0  0  0  0  0  0  0  0  0  0  0  0
    0.4210   18.3050   -1.8000 C   0  0  0  0  0  0  0  0  0  0  0  0
    0.1280   17.9720   -3.2840 C   0  0  0  0  0  0  0  0  0  0  0  0
   -0.7780   19.1570   -1.3010 C   0  0  0  0  0  0  0  0  0  0  0  0
    2.1090   14.8650   -0.4710 C   0  0  1  0  0  0  0  0  0  0  0  0
    2.7610   15.1800    0.9100 C   0  0  0  0  0  0  0  0  0  0  0  0
    3.1210   13.9340   -1.2380 C   0  0  0  0  0  0  0  0  0  0  0  0
    2.5280   12.9860   -2.2980 C   0  0  0  0  0  0  0  0  0  0  0  0
    1.3310   12.2140   -1.7340 C   0  0  2  0  0  0  0  0  0  0  0  0
    1.8490   11.3230   -0.5540 C   0  0  0  0  0  0  0  0  0  0  0  0
    0.5479    8.9530   -1.2954 H   0  0  0  0  0  0  0  0  0  0  0  0
   -0.5945    8.8387   -2.6769 H   0  0  0  0  0  0  0  0  0  0  0  0
    0.9152    7.8653   -2.6769 H   0  0  0  0  0  0  0  0  0  0  0  0
    1.1181    9.8006   -4.1727 H   0  0  0  0  0  0  0  0  0  0  0  0
    2.8348   10.5537   -1.8022 H   0  0  0  0  0  0  0  0  0  0  0  0
    3.0303    8.9451   -2.6489 H   0  0  0  0  0  0  0  0  0  0  0  0
    3.6090    9.9804   -4.6960 H   0  0  0  0  0  0  0  0  0  0  0  0
    3.1388   11.6167   -4.0723 H   0  0  0  0  0  0  0  0  0  0  0  0
    4.7547   10.3699   -2.3793 H   0  0  0  0  0  0  0  0  0  0  0  0
    5.5987    9.5818   -5.8585 H   0  0  0  0  0  0  0  0  0  0  0  0
    5.4375   11.3435   -6.1701 H   0  0  0  0  0  0  0  0  0  0  0  0
    7.0617   10.5764   -6.1701 H   0  0  0  0  0  0  0  0  0  0  0  0
    7.4480   10.6004   -2.5336 H   0  0  0  0  0  0  0  0  0  0  0  0
    7.9049    9.6000   -3.9538 H   0  0  0  0  0  0  0  0  0  0  0  0
    8.2388   11.3650   -3.9538 H   0  0  0  0  0  0  0  0  0  0  0  0
    0.5328   11.7711   -3.7190 H   0  0  0  0  0  0  0  0  0  0  0  0
   -1.6246   11.2151   -2.7816 H   0  0  0  0  0  0  0  0  0  0  0  0
   -0.9040   10.1475   -1.5579 H   0  0  0  0  0  0  0  0  0  0  0  0
   -1.9143   12.7780   -1.0798 H   0  0  0  0  0  0  0  0  0  0  0  0
   -0.8767   11.9002    0.0409 H   0  0  0  0  0  0  0  0  0  0  0  0
   -0.8759   14.9723   -2.1267 H   0  0  0  0  0  0  0  0  0  0  0  0
    0.5137   14.4513   -3.1388 H   0  0  0  0  0  0  0  0  0  0  0  0
   -1.0062   13.4940   -3.1388 H   0  0  0  0  0  0  0  0  0  0  0  0
    0.9332   13.4020    0.6235 H   0  0  0  0  0  0  0  0  0  0  0  0
   -1.2938   14.6617    0.3139 H   0  0  0  0  0  0  0  0  0  0  0  0
    0.0012   15.2854    1.4640 H   0  0  0  0  0  0  0  0  0  0  0  0
   -1.2144   17.0954   -0.0153 H   0  0  0  0  0  0  0  0  0  0  0  0
    1.8451   15.8442   -2.3335 H   0  0  0  0  0  0  0  0  0  0  0  0
    3.1960   17.4942   -0.1092 H   0  0  0  0  0  0  0  0  0  0  0  0
    4.0197   16.6339   -1.4845 H   0  0  0  0  0  0  0  0  0  0  0  0
    3.8465   19.0713   -1.8733 H   0  0  0  0  0  0  0  0  0  0  0  0
    2.9337   18.0950   -3.0897 H   0  0  0  0  0  0  0  0  0  0  0  0
    1.5913   19.9788   -2.4510 H   0  0  0  0  0  0  0  0  0  0  0  0
    1.5290   20.6440   -0.4160 H   0  0  0  0  0  0  0  0  0  0  0  0
   -0.5977   17.1472   -3.3383 H   0  0  0  0  0  0  0  0  0  0  0  0
   -0.2875   18.8595   -3.7838 H   0  0  0  0  0  0  0  0  0  0  0  0
    1.0611   17.6729   -3.7838 H   0  0  0  0  0  0  0  0  0  0  0  0
   -0.7894   19.1651   -0.2011 H   0  0  0  0  0  0  0  0  0  0  0  0
   -0.6766   20.1868   -1.6743 H   0  0  0  0  0  0  0  0  0  0  0  0
   -1.7171   18.7225   -1.6743 H   0  0  0  0  0  0  0  0  0  0  0  0
    2.0873   14.8545    1.7163 H   0  0  0  0  0  0  0  0  0  0  0  0
    3.7185   14.6451    0.9939 H   0  0  0  0  0  0  0  0  0  0  0  0
    2.9371   16.2626    0.9939 H   0  0  0  0  0  0  0  0  0  0  0  0
    3.8519   14.5824   -1.7434 H   0  0  0  0  0  0  0  0  0  0  0  0
    3.5450   13.2738   -0.4671 H   0  0  0  0  0  0  0  0  0  0  0  0
    2.1989   13.5768   -3.1655 H   0  0  0  0  0  0  0  0  0  0  0  0
    3.3026   12.2640   -2.5958 H   0  0  0  0  0  0  0  0  0  0  0  0
    1.5776   11.7898    0.4044 H   0  0  0  0  0  0  0  0  0  0  0  0
    1.3901   10.3254   -0.6190 H   0  0  0  0  0  0  0  0  0  0  0  0
    2.9430   11.2282   -0.6190 H   0  0  0  0  0  0  0  0  0  0  0  0
  1  2  1  0
  2  3  1  0
  3  4  1  0
  4  5  1  0
  5  6  1  0
  6  7  1  0
  7  8  1  0
  7  9  1  0
  2 10  1  0
 10 11  1  0
 11 12  1  0
 12 13  1  0
 13 14  1  6
 13 15  1  0
 15 16  1  0
 16 17  1  0
 17 18  2  0
 18 19  1  0
 19 20  1  0
 20 21  1  0
 21 22  1  0
 22 23  1  0
 22 24  1  0
 24 25  1  0
 24 26  1  0
 19 27  1  0
 27 28  1  1
 27 29  1  0
 29 30  1  0
 30 31  1  0
 31 32  1  1
  7  5  1  0
 31 10  1  0
 31 13  1  0
 27 15  1  0
 24 18  1  0
  1 33  1  0
  1 34  1  0
  1 35  1  0
  2 36  1  6
  3 37  1  0
  3 38  1  0
  4 39  1  0
  4 40  1  0
  5 41  1  1
  8 42  1  0
  8 43  1  0
  8 44  1  0
  9 45  1  0
  9 46  1  0
  9 47  1  0
 10 48  1  6
 11 49  1  0
 11 50  1  0
 12 51  1  0
 12 52  1  0
 14 53  1  0
 14 54  1  0
 14 55  1  0
 15 56  1  1
 16 57  1  0
 16 58  1  0
 17 59  1  0
 19 60  1  6
 20 61  1  0
 20 62  1  0
 21 63  1  0
 21 64  1  0
 22 65  1  6
 23 66  1  0
 25 67  1  0
 25 68  1  0
 25 69  1  0
 26 70  1  0
 26 71  1  0
 26 72  1  0
 28 73  1  0
 28 74  1  0
 28 75  1  0
 29 76  1  0
 29 77  1  0
 30 78  1  0
 30 79  1  0
 32 80  1  0
 32 81  1  0
 32 82  1  0
M  END
>  <meeko>  (7) 
{"is_sidechain": [false], "intermolecular_energy": 2.731, "internal_energy": -0.839}

$$$$
EPH_relaxed_0001_pdb2pqr_Repair_268_r2_0001_out
     RDKit          3D

 82 86  0  0  0  0  0  0  0  0999 V2000
   -0.0670   10.5740   -4.0180 C   0  0  0  0  0  0  0  0  0  0  0  0
    0.9520   10.2970   -2.9080 C   0  0  2  0  0  0  0  0  0  0  0  0
    0.6260    9.0070   -2.1300 C   0  0  0  0  0  0  0  0  0  0  0  0
   -0.8380    8.5720   -2.2450 C   0  0  0  0  0  0  0  0  0  0  0  0
   -1.5520    8.6780   -0.9310 C   0  0  2  0  0  0  0  0  0  0  0  0
   -2.9600    8.9260   -1.0340 O   0  0  0  0  0  0  0  0  0  0  0  0
   -2.1770    9.9620   -0.4200 C   0  0  0  0  0  0  0  0  0  0  0  0
   -2.1150   11.2300   -1.2140 C   0  0  0  0  0  0  0  0  0  0  0  0
   -2.4150   10.1060    1.0510 C   0  0  0  0  0  0  0  0  0  0  0  0
    1.0130   11.4810   -1.9510 C   0  0  1  0  0  0  0  0  0  0  0  0
    2.0470   11.2770   -0.8130 C   0  0  0  0  0  0  0  0  0  0  0  0
    2.6580   12.6680   -0.5080 C   0  0  0  0  0  0  0  0  0  0  0  0
    1.7310   13.6690   -1.2360 C   0  0  1  0  0  0  0  0  0  0  0  0
    0.5120   13.8560   -0.2800 C   0  0  0  0  0  0  0  0  0  0  0  0
    2.3700   15.0410   -1.6310 C   0  0  2  0  0  0  0  0  0  0  0  0
    2.8510   15.9010   -0.4490 C   0  0  0  0  0  0  0  0  0  0  0  0
    1.8390   16.8500    0.1020 C   0  0  0  0  0  0  0  0  0  0  0  0
    0.6930   17.2120   -0.5050 C   0  0  0  0  0  0  0  0  0  0  0  0
    0.3660   16.7260   -1.9230 C   0  0  1  0  0  0  0  0  0  0  0  0
   -0.1320   17.9210   -2.7770 C   0  0  0  0  0  0  0  0  0  0  0  0
   -1.3000   18.6580   -2.1280 C   0  0  0  0  0  0  0  0  0  0  0  0
   -0.9170   19.1760   -0.7450 C   0  0  2  0  0  0  0  0  0  0  0  0
    0.0790   20.1920   -0.8920 O   0  0  0  0  0  0  0  0  0  0  0  0
   -0.3910   18.0610    0.2030 C   0  0  0  0  0  0  0  0  0  0  0  0
   -1.5580   17.1250    0.6030 C   0  0  0  0  0  0  0  0  0  0  0  0
    0.0920   18.7380    1.5140 C   0  0  0  0  0  0  0  0  0  0  0  0
    1.5050   15.8890   -2.6490 C   0  0  1  0  0  0  0  0  0  0  0  0
    2.4920   16.8530   -3.3760 C   0  0  0  0  0  0  0  0  0  0  0  0
    0.8520   14.9950   -3.7690 C   0  0  0  0  0  0  0  0  0  0  0  0
    0.3480   13.6040   -3.3410 C   0  0  0  0  0  0  0  0  0  0  0  0
    1.4200   12.8540   -2.5430 C   0  0  2  0  0  0  0  0  0  0  0  0
    2.6510   12.6330   -3.4870 C   0  0  0  0  0  0  0  0  0  0  0  0
   -1.0360   10.8374   -3.5688 H   0  0  0  0  0  0  0  0  0  0  0  0
    0.2873   11.4084   -4.6411 H   0  0  0  0  0  0  0  0  0  0  0  0
   -0.1839    9.6751   -4.6411 H   0  0  0  0  0  0  0  0  0  0  0  0
    1.9323   10.1553   -3.3865 H   0  0  0  0  0  0  0  0  0  0  0  0
    1.2605    8.1971   -2.5191 H   0  0  0  0  0  0  0  0  0  0  0  0
    0.8168    9.2158   -1.0670 H   0  0  0  0  0  0  0  0  0  0  0  0
   -1.3447    9.2157   -2.9791 H   0  0  0  0  0  0  0  0  0  0  0  0
   -0.8593    7.5193   -2.5633 H   0  0  0  0  0  0  0  0  0  0  0  0
   -0.8579    7.9607   -0.4688 H   0  0  0  0  0  0  0  0  0  0  0  0
   -2.0730   12.0898   -0.5291 H   0  0  0  0  0  0  0  0  0  0  0  0
   -1.2162   11.2220   -1.8481 H   0  0  0  0  0  0  0  0  0  0  0  0
   -3.0103   11.3097   -1.8481 H   0  0  0  0  0  0  0  0  0  0  0  0
   -1.6014    9.6138    1.6040 H   0  0  0  0  0  0  0  0  0  0  0  0
   -2.4443   11.1735    1.3149 H   0  0  0  0  0  0  0  0  0  0  0  0
   -3.3742    9.6366    1.3149 H   0  0  0  0  0  0  0  0  0  0  0  0
   -0.0371   11.5077   -1.6245 H   0  0  0  0  0  0  0  0  0  0  0  0
    1.5499   10.8771    0.0831 H   0  0  0  0  0  0  0  0  0  0  0  0
    2.8264   10.5607   -1.1119 H   0  0  0  0  0  0  0  0  0  0  0  0
    2.6636   12.8608    0.5750 H   0  0  0  0  0  0  0  0  0  0  0  0
    3.7028   12.7474   -0.8429 H   0  0  0  0  0  0  0  0  0  0  0  0
    0.8536   13.8036    0.7643 H   0  0  0  0  0  0  0  0  0  0  0  0
    0.0477   14.8359   -0.4652 H   0  0  0  0  0  0  0  0  0  0  0  0
   -0.2247   13.0604   -0.4652 H   0  0  0  0  0  0  0  0  0  0  0  0
    3.2806   14.7326   -2.1656 H   0  0  0  0  0  0  0  0  0  0  0  0
    3.1585   15.2236    0.3613 H   0  0  0  0  0  0  0  0  0  0  0  0
    3.6709   16.5224   -0.8384 H   0  0  0  0  0  0  0  0  0  0  0  0
    2.0473   17.2911    1.0879 H   0  0  0  0  0  0  0  0  0  0  0  0
   -0.4392   15.9847   -1.8129 H   0  0  0  0  0  0  0  0  0  0  0  0
    0.6995   18.6282   -2.9125 H   0  0  0  0  0  0  0  0  0  0  0  0
   -0.4836   17.5200   -3.7391 H   0  0  0  0  0  0  0  0  0  0  0  0
   -1.5873   19.5083   -2.7640 H   0  0  0  0  0  0  0  0  0  0  0  0
   -2.1409   17.9572   -2.0200 H   0  0  0  0  0  0  0  0  0  0  0  0
   -1.8288   19.5788   -0.2799 H   0  0  0  0  0  0  0  0  0  0  0  0
   -0.2750   21.0100   -0.5040 H   0  0  0  0  0  0  0  0  0  0  0  0
   -1.6253   17.0710    1.6996 H   0  0  0  0  0  0  0  0  0  0  0  0
   -2.5008   17.5202    0.1968 H   0  0  0  0  0  0  0  0  0  0  0  0
   -1.3769   16.1189    0.1968 H   0  0  0  0  0  0  0  0  0  0  0  0
   -0.3026   18.1850    2.3792 H   0  0  0  0  0  0  0  0  0  0  0  0
    1.1915   18.7327    1.5459 H   0  0  0  0  0  0  0  0  0  0  0  0
   -0.2708   19.7760    1.5459 H   0  0  0  0  0  0  0  0  0  0  0  0
    3.0699   17.4175   -2.6294 H   0  0  0  0  0  0  0  0  0  0  0  0
    3.1787   16.2682   -4.0057 H   0  0  0  0  0  0  0  0  0  0  0  0
    1.9236   17.5533   -4.0057 H   0  0  0  0  0  0  0  0  0  0  0  0
   -0.0060   15.5484   -4.1785 H   0  0  0  0  0  0  0  0  0  0  0  0
    1.6603   14.7994   -4.4890 H   0  0  0  0  0  0  0  0  0  0  0  0
   -0.5489   13.7230   -2.7154 H   0  0  0  0  0  0  0  0  0  0  0  0
    0.1126   13.0228   -4.2448 H   0  0  0  0  0  0  0  0  0  0  0  0
    3.5540   12.4709   -2.8801 H   0  0  0  0  0  0  0  0  0  0  0  0
    2.4729   11.7525   -4.1218 H   0  0  0  0  0  0  0  0  0  0  0  0
    2.7903   13.5205   -4.1218 H   0  0  0  0  0  0  0  0  0  0  0  0
  1  2  1  0
  2  3  1  0
  3  4  1  0
  4  5  1  0
  5  6  1  0
  6  7  1  0
  7  8  1  0
  7  9  1  0
  2 10  1  0
 10 11  1  0
 11 12  1  0
 12 13  1  0
 13 14  1  1
 13 15  1  0
 15 16  1  0
 16 17  1  0
 17 18  2  0
 18 19  1  0
 19 20  1  0
 20 21  1  0
 21 22  1  0
 22 23  1  0
 22 24  1  0
 24 25  1  0
 24 26  1  0
 19 27  1  0
 27 28  1  6
 27 29  1  0
 29 30  1  0
 30 31  1  0
 31 32  1  6
  7  5  1  0
 31 10  1  0
 31 13  1  0
 27 15  1  0
 24 18  1  0
  1 33  1  0
  1 34  1  0
  1 35  1  0
  2 36  1  6
  3 37  1  0
  3 38  1  0
  4 39  1  0
  4 40  1  0
  5 41  1  1
  8 42  1  0
  8 43  1  0
  8 44  1  0
  9 45  1  0
  9 46  1  0
  9 47  1  0
 10 48  1  1
 11 49  1  0
 11 50  1  0
 12 51  1  0
 12 52  1  0
 14 53  1  0
 14 54  1  0
 14 55  1  0
 15 56  1  6
 16 57  1  0
 16 58  1  0
 17 59  1  0
 19 60  1  1
 20 61  1  0
 20 62  1  0
 21 63  1  0
 21 64  1  0
 22 65  1  1
 23 66  1  0
 25 67  1  0
 25 68  1  0
 25 69  1  0
 26 70  1  0
 26 71  1  0
 26 72  1  0
 28 73  1  0
 28 74  1  0
 28 75  1  0
 29 76  1  0
 29 77  1  0
 30 78  1  0
 30 79  1  0
 32 80  1  0
 32 81  1  0
 32 82  1  0
M  END
>  <meeko>  (8) 
{"is_sidechain": [false], "intermolecular_energy": 2.731, "internal_energy": -0.839}

$$$$
EPH_relaxed_0001_pdb2pqr_Repair_268_r2_0001_out
     RDKit          3D

 82 86  0  0  0  0  0  0  0  0999 V2000
    1.5780   19.5870   -2.0630 C   0  0  0  0  0  0  0  0  0  0  0  0
    1.4500   19.3680   -0.5520 C   0  0  2  0  0  0  0  0  0  0  0  0
    2.7430   19.7420    0.2000 C   0  0  0  0  0  0  0  0  0  0  0  0
    3.1760   18.7000    1.2350 C   0  0  0  0  0  0  0  0  0  0  0  0
    4.5640   18.9610    1.7370 C   0  0  2  0  0  0  0  0  0  0  0  0
    4.9780   18.1150    2.8170 O   0  0  0  0  0  0  0  0  0  0  0  0
    4.8640   19.5160    3.1170 C   0  0  0  0  0  0  0  0  0  0  0  0
    3.7680   19.8440    4.0810 C   0  0  0  0  0  0  0  0  0  0  0  0
    6.1790   20.1930    3.3450 C   0  0  0  0  0  0  0  0  0  0  0  0
    1.0820   17.9170   -0.2660 C   0  0  1  0  0  0  0  0  0  0  0  0
   -0.2660   17.7810    0.4900 C   0  0  0  0  0  0  0  0  0  0  0  0
   -0.9420   16.4860   -0.0310 C   0  0  0  0  0  0  0  0  0  0  0  0
    0.1720   15.7520   -0.8130 C   0  0  1  0  0  0  0  0  0  0  0  0
    1.0150   15.0220    0.2790 C   0  0  0  0  0  0  0  0  0  0  0  0
   -0.3030   14.7660   -1.9300 C   0  0  2  0  0  0  0  0  0  0  0  0
   -1.1410   13.5740   -1.4360 C   0  0  0  0  0  0  0  0  0  0  0  0
   -0.3620   12.3520   -1.0790 C   0  0  0  0  0  0  0  0  0  0  0  0
    0.9190   12.1140   -1.4170 C   0  0  0  0  0  0  0  0  0  0  0  0
    1.6880   13.0860   -2.3200 C   0  0  1  0  0  0  0  0  0  0  0  0
    2.4380   12.2890   -3.4200 C   0  0  0  0  0  0  0  0  0  0  0  0
    3.3330   11.1960   -2.8430 C   0  0  0  0  0  0  0  0  0  0  0  0
    2.5210   10.2160   -1.9990 C   0  0  2  0  0  0  0  0  0  0  0  0
    1.6280    9.4990   -2.8570 O   0  0  0  0  0  0  0  0  0  0  0  0
    1.7150   10.9070   -0.8640 C   0  0  0  0  0  0  0  0  0  0  0  0
    2.6880   11.4240    0.2250 C   0  0  0  0  0  0  0  0  0  0  0  0
    0.8330    9.8270   -0.1800 C   0  0  0  0  0  0  0  0  0  0  0  0
    0.8460   14.2970   -2.9120 C   0  0  1  0  0  0  0  0  0  0  0  0
    0.1500   13.8640   -4.2380 C   0  0  0  0  0  0  0  0  0  0  0  0
    1.8270   15.4700   -3.2880 C   0  0  0  0  0  0  0  0  0  0  0  0
    2.1640   16.4790   -2.1740 C   0  0  0  0  0  0  0  0  0  0  0  0
    0.8900   16.9790   -1.4840 C   0  0  2  0  0  0  0  0  0  0  0  0
    0.0320   17.7370   -2.5540 C   0  0  0  0  0  0  0  0  0  0  0  0
    2.1247   20.5224   -2.2529 H   0  0  0  0  0  0  0  0  0  0  0  0
    2.1260   18.7447   -2.5105 H   0  0  0  0  0  0  0  0  0  0  0  0
    0.5752   19.6511   -2.5105 H   0  0  0  0  0  0  0  0  0  0  0  0
    0.6523   20.0320   -0.1877 H   0  0  0  0  0  0  0  0  0  0  0  0
    3.5521   19.8573   -0.5363 H   0  0  0  0  0  0  0  0  0  0  0  0
    2.5384   20.6737    0.7478 H   0  0  0  0  0  0  0  0  0  0  0  0
    2.4780   18.7301    2.0847 H   0  0  0  0  0  0  0  0  0  0  0  0
    3.1662   17.7119    0.7517 H   0  0  0  0  0  0  0  0  0  0  0  0
    4.8963   19.2625    0.7327 H   0  0  0  0  0  0  0  0  0  0  0  0
    4.1396   19.7328    5.1103 H   0  0  0  0  0  0  0  0  0  0  0  0
    3.4368   20.8806    3.9207 H   0  0  0  0  0  0  0  0  0  0  0  0
    2.9218   19.1598    3.9207 H   0  0  0  0  0  0  0  0  0  0  0  0
    6.3607   20.2866    4.4258 H   0  0  0  0  0  0  0  0  0  0  0  0
    6.9825   19.5965    2.8884 H   0  0  0  0  0  0  0  0  0  0  0  0
    6.1603   21.1936    2.8884 H   0  0  0  0  0  0  0  0  0  0  0  0
    1.9689   17.6113    0.3084 H   0  0  0  0  0  0  0  0  0  0  0  0
   -0.0872   17.7058    1.5728 H   0  0  0  0  0  0  0  0  0  0  0  0
   -0.9065   18.6583    0.3167 H   0  0  0  0  0  0  0  0  0  0  0  0
   -1.2985   15.8697    0.8075 H   0  0  0  0  0  0  0  0  0  0  0  0
   -1.8214   16.6973   -0.6571 H   0  0  0  0  0  0  0  0  0  0  0  0
    0.6645   15.3255    1.2765 H   0  0  0  0  0  0  0  0  0  0  0  0
    0.8994   13.9340    0.1650 H   0  0  0  0  0  0  0  0  0  0  0  0
    2.0753   15.2920    0.1650 H   0  0  0  0  0  0  0  0  0  0  0  0
   -0.9910   15.3909   -2.5184 H   0  0  0  0  0  0  0  0  0  0  0  0
   -1.6966   13.8959   -0.5429 H   0  0  0  0  0  0  0  0  0  0  0  0
   -1.7884   13.2873   -2.2778 H   0  0  0  0  0  0  0  0  0  0  0  0
   -0.8786   11.5802   -0.4895 H   0  0  0  0  0  0  0  0  0  0  0  0
    2.4128   13.5960   -1.6684 H   0  0  0  0  0  0  0  0  0  0  0  0
    1.6964   11.8228   -4.0853 H   0  0  0  0  0  0  0  0  0  0  0  0
    3.0821   12.9956   -3.9639 H   0  0  0  0  0  0  0  0  0  0  0  0
    3.8118   10.6493   -3.6688 H   0  0  0  0  0  0  0  0  0  0  0  0
    4.0931   11.6662   -2.2018 H   0  0  0  0  0  0  0  0  0  0  0  0
    3.2318    9.5350   -1.5081 H   0  0  0  0  0  0  0  0  0  0  0  0
    1.4180    8.6550   -2.4230 H   0  0  0  0  0  0  0  0  0  0  0  0
    2.2745   11.2043    1.2204 H   0  0  0  0  0  0  0  0  0  0  0  0
    3.6616   10.9243    0.1139 H   0  0  0  0  0  0  0  0  0  0  0  0
    2.8188   12.5105    0.1139 H   0  0  0  0  0  0  0  0  0  0  0  0
    0.9137    9.9258    0.9126 H   0  0  0  0  0  0  0  0  0  0  0  0
   -0.2153    9.9633   -0.4841 H   0  0  0  0  0  0  0  0  0  0  0  0
    1.1760    8.8270   -0.4841 H   0  0  0  0  0  0  0  0  0  0  0  0
   -0.7627   13.2962   -4.0046 H   0  0  0  0  0  0  0  0  0  0  0  0
   -0.1136   14.7578   -4.8225 H   0  0  0  0  0  0  0  0  0  0  0  0
    0.8352   13.2325   -4.8225 H   0  0  0  0  0  0  0  0  0  0  0  0
    2.7718   15.0184   -3.6246 H   0  0  0  0  0  0  0  0  0  0  0  0
    1.2960   16.0543   -4.0539 H   0  0  0  0  0  0  0  0  0  0  0  0
    2.8089   15.9904   -1.4288 H   0  0  0  0  0  0  0  0  0  0  0  0
    2.6803   17.3397   -2.6243 H   0  0  0  0  0  0  0  0  0  0  0  0
   -0.6995   18.3832   -2.0467 H   0  0  0  0  0  0  0  0  0  0  0  0
    0.6912   18.3530   -3.1832 H   0  0  0  0  0  0  0  0  0  0  0  0
   -0.4981   17.0068   -3.1832 H   0  0  0  0  0  0  0  0  0  0  0  0
  1  2  1  0
  2  3  1  0
  3  4  1  0
  4  5  1  0
  5  6  1  0
  6  7  1  0
  7  8  1  0
  7  9  1  0
  2 10  1  0
 10 11  1  0
 11 12  1  0
 12 13  1  0
 13 14  1  1
 13 15  1  0
 15 16  1  0
 16 17  1  0
 17 18  2  0
 18 19  1  0
 19 20  1  0
 20 21  1  0
 21 22  1  0
 22 23  1  0
 22 24  1  0
 24 25  1  0
 24 26  1  0
 19 27  1  0
 27 28  1  6
 27 29  1  0
 29 30  1  0
 30 31  1  0
 31 32  1  6
  7  5  1  0
 31 10  1  0
 31 13  1  0
 27 15  1  0
 24 18  1  0
  1 33  1  0
  1 34  1  0
  1 35  1  0
  2 36  1  1
  3 37  1  0
  3 38  1  0
  4 39  1  0
  4 40  1  0
  5 41  1  6
  8 42  1  0
  8 43  1  0
  8 44  1  0
  9 45  1  0
  9 46  1  0
  9 47  1  0
 10 48  1  1
 11 49  1  0
 11 50  1  0
 12 51  1  0
 12 52  1  0
 14 53  1  0
 14 54  1  0
 14 55  1  0
 15 56  1  6
 16 57  1  0
 16 58  1  0
 17 59  1  0
 19 60  1  1
 20 61  1  0
 20 62  1  0
 21 63  1  0
 21 64  1  0
 22 65  1  1
 23 66  1  0
 25 67  1  0
 25 68  1  0
 25 69  1  0
 26 70  1  0
 26 71  1  0
 26 72  1  0
 28 73  1  0
 28 74  1  0
 28 75  1  0
 29 76  1  0
 29 77  1  0
 30 78  1  0
 30 79  1  0
 32 80  1  0
 32 81  1  0
 32 82  1  0
M  END
>  <meeko>  (9) 
{"is_sidechain": [false], "intermolecular_energy": 2.731, "internal_energy": -0.839}

$$$$
EPH_relaxed_0001_pdb2pqr_Repair_268_r2_0001_out
     RDKit          3D

 82 86  0  0  0  0  0  0  0  0999 V2000
   -3.7390    7.2190   -3.4030 C   0  0  0  0  0  0  0  0  0  0  0  0
   -3.7580    7.2910   -1.8740 C   0  0  2  0  0  0  0  0  0  0  0  0
   -5.1710    7.0660   -1.2990 C   0  0  0  0  0  0  0  0  0  0  0  0
   -6.2860    7.1930   -2.3400 C   0  0  0  0  0  0  0  0  0  0  0  0
   -7.6180    7.4410   -1.6980 C   0  0  2  0  0  0  0  0  0  0  0  0
   -8.2410    6.2750   -1.1430 O   0  0  0  0  0  0  0  0  0  0  0  0
   -8.9240    6.8950   -2.2450 C   0  0  0  0  0  0  0  0  0  0  0  0
   -8.9620    6.0590   -3.4850 C   0  0  0  0  0  0  0  0  0  0  0  0
  -10.2010    7.5730   -1.8570 C   0  0  0  0  0  0  0  0  0  0  0  0
   -3.2150    8.6380   -1.4110 C   0  0  1  0  0  0  0  0  0  0  0  0
   -3.8250    9.0950   -0.0580 C   0  0  0  0  0  0  0  0  0  0  0  0
   -2.7070    9.8510    0.7040 C   0  0  0  0  0  0  0  0  0  0  0  0
   -1.6070   10.0930   -0.3560 C   0  0  1  0  0  0  0  0  0  0  0  0
   -2.0860   11.3480   -1.1520 C   0  0  0  0  0  0  0  0  0  0  0  0
   -0.1520   10.2750    0.1860 C   0  0  2  0  0  0  0  0  0  0  0  0
    0.0560   11.4950    1.1000 C   0  0  0  0  0  0  0  0  0  0  0  0
    0.4590   12.7530    0.4040 C   0  0  0  0  0  0  0  0  0  0  0  0
    0.9220   12.8340   -0.8570 C   0  0  0  0  0  0  0  0  0  0  0  0
    1.1730   11.5690   -1.6880 C   0  0  1  0  0  0  0  0  0  0  0  0
    2.5580   11.6700   -2.3790 C   0  0  0  0  0  0  0  0  0  0  0  0
    2.7100   12.9470   -3.2010 C   0  0  0  0  0  0  0  0  0  0  0  0
    2.5110   14.1830   -2.3280 C   0  0  2  0  0  0  0  0  0  0  0  0
    3.5850   14.2610   -1.3860 O   0  0  0  0  0  0  0  0  0  0  0  0
    1.1520   14.1880   -1.5730 C   0  0  0  0  0  0  0  0  0  0  0  0
   -0.0030   14.4080   -2.5810 C   0  0  0  0  0  0  0  0  0  0  0  0
    1.1390   15.4160   -0.6230 C   0  0  0  0  0  0  0  0  0  0  0  0
    0.9700   10.1890   -0.9260 C   0  0  1  0  0  0  0  0  0  0  0  0
    2.2880    9.7840   -0.1990 C   0  0  0  0  0  0  0  0  0  0  0  0
    0.6800    9.0570   -1.9820 C   0  0  0  0  0  0  0  0  0  0  0  0
   -0.7910    8.8470   -2.3880 C   0  0  0  0  0  0  0  0  0  0  0  0
   -1.6910    8.7410   -1.1530 C   0  0  2  0  0  0  0  0  0  0  0  0
   -1.2470    7.4740   -0.3450 C   0  0  0  0  0  0  0  0  0  0  0  0
   -3.4701    6.2002   -3.7188 H   0  0  0  0  0  0  0  0  0  0  0  0
   -4.7350    7.4734   -3.7945 H   0  0  0  0  0  0  0  0  0  0  0  0
   -2.9982    7.9317   -3.7945 H   0  0  0  0  0  0  0  0  0  0  0  0
   -3.1161    6.4815   -1.4964 H   0  0  0  0  0  0  0  0  0  0  0  0
   -5.2131    6.0555   -0.8664 H   0  0  0  0  0  0  0  0  0  0  0  0
   -5.3413    7.8513   -0.5478 H   0  0  0  0  0  0  0  0  0  0  0  0
   -6.0524    8.0319   -3.0121 H   0  0  0  0  0  0  0  0  0  0  0  0
   -6.3446    6.2463   -2.8971 H   0  0  0  0  0  0  0  0  0  0  0  0
   -7.3106    8.4526   -1.3945 H   0  0  0  0  0  0  0  0  0  0  0  0
   -9.0103    4.9953   -3.2088 H   0  0  0  0  0  0  0  0  0  0  0  0
   -9.8490    6.3243   -4.0790 H   0  0  0  0  0  0  0  0  0  0  0  0
   -8.0546    6.2427   -4.0790 H   0  0  0  0  0  0  0  0  0  0  0  0
  -10.2764    7.6130   -0.7603 H   0  0  0  0  0  0  0  0  0  0  0  0
  -10.2113    8.5954   -2.2628 H   0  0  0  0  0  0  0  0  0  0  0  0
  -11.0537    7.0088   -2.2628 H   0  0  0  0  0  0  0  0  0  0  0  0
   -3.4923    9.2556   -2.2780 H   0  0  0  0  0  0  0  0  0  0  0  0
   -4.6811    9.7627   -0.2348 H   0  0  0  0  0  0  0  0  0  0  0  0
   -4.1863    8.2338    0.5232 H   0  0  0  0  0  0  0  0  0  0  0  0
   -3.0834   10.8065    1.0981 H   0  0  0  0  0  0  0  0  0  0  0  0
   -2.3346    9.2831    1.5693 H   0  0  0  0  0  0  0  0  0  0  0  0
   -2.3870   12.1366   -0.4467 H   0  0  0  0  0  0  0  0  0  0  0  0
   -1.2651   11.7160   -1.7850 H   0  0  0  0  0  0  0  0  0  0  0  0
   -2.9433   11.0755   -1.7850 H   0  0  0  0  0  0  0  0  0  0  0  0
   -0.0296    9.3930    0.8318 H   0  0  0  0  0  0  0  0  0  0  0  0
   -0.8886   11.6875    1.6299 H   0  0  0  0  0  0  0  0  0  0  0  0
    0.8912   11.2359    1.7674 H   0  0  0  0  0  0  0  0  0  0  0  0
    0.3700   13.6924    0.9694 H   0  0  0  0  0  0  0  0  0  0  0  0
    0.3784   11.5407   -2.4482 H   0  0  0  0  0  0  0  0  0  0  0  0
    3.3400   11.6533   -1.6056 H   0  0  0  0  0  0  0  0  0  0  0  0
    2.6509   10.8168   -3.0671 H   0  0  0  0  0  0  0  0  0  0  0  0
    3.7181   12.9748   -3.6403 H   0  0  0  0  0  0  0  0  0  0  0  0
    1.9461   12.9488   -3.9924 H   0  0  0  0  0  0  0  0  0  0  0  0
    2.5030   15.0585   -2.9939 H   0  0  0  0  0  0  0  0  0  0  0  0
    3.5990   13.4280   -0.8860 H   0  0  0  0  0  0  0  0  0  0  0  0
   -0.9395   14.5864   -2.0323 H   0  0  0  0  0  0  0  0  0  0  0  0
    0.2231   15.2792   -3.2133 H   0  0  0  0  0  0  0  0  0  0  0  0
   -0.1130   13.5147   -3.2133 H   0  0  0  0  0  0  0  0  0  0  0  0
    1.1426   15.0715    0.4216 H   0  0  0  0  0  0  0  0  0  0  0  0
    2.0307   16.0328   -0.8088 H   0  0  0  0  0  0  0  0  0  0  0  0
    0.2345   16.0138   -0.8088 H   0  0  0  0  0  0  0  0  0  0  0  0
    2.1357    9.8308    0.8894 H   0  0  0  0  0  0  0  0  0  0  0  0
    2.5654    8.7592   -0.4867 H   0  0  0  0  0  0  0  0  0  0  0  0
    3.0930   10.4762   -0.4867 H   0  0  0  0  0  0  0  0  0  0  0  0
    1.2456    9.2995   -2.8937 H   0  0  0  0  0  0  0  0  0  0  0  0
    0.9795    8.1201   -1.4896 H   0  0  0  0  0  0  0  0  0  0  0  0
   -1.1202    9.6989   -3.0011 H   0  0  0  0  0  0  0  0  0  0  0  0
   -0.8669    7.9097   -2.9587 H   0  0  0  0  0  0  0  0  0  0  0  0
   -1.3200    7.6822    0.7326 H   0  0  0  0  0  0  0  0  0  0  0  0
   -1.9023    6.6281   -0.6002 H   0  0  0  0  0  0  0  0  0  0  0  0
   -0.2071    7.2222   -0.6002 H   0  0  0  0  0  0  0  0  0  0  0  0
  1  2  1  0
  2  3  1  0
  3  4  1  0
  4  5  1  0
  5  6  1  0
  6  7  1  0
  7  8  1  0
  7  9  1  0
  2 10  1  0
 10 11  1  0
 11 12  1  0
 12 13  1  0
 13 14  1  6
 13 15  1  0
 15 16  1  0
 16 17  1  0
 17 18  2  0
 18 19  1  0
 19 20  1  0
 20 21  1  0
 21 22  1  0
 22 23  1  0
 22 24  1  0
 24 25  1  0
 24 26  1  0
 19 27  1  0
 27 28  1  1
 27 29  1  0
 29 30  1  0
 30 31  1  0
 31 32  1  1
  7  5  1  0
 31 10  1  0
 31 13  1  0
 27 15  1  0
 24 18  1  0
  1 33  1  0
  1 34  1  0
  1 35  1  0
  2 36  1  1
  3 37  1  0
  3 38  1  0
  4 39  1  0
  4 40  1  0
  5 41  1  1
  8 42  1  0
  8 43  1  0
  8 44  1  0
  9 45  1  0
  9 46  1  0
  9 47  1  0
 10 48  1  6
 11 49  1  0
 11 50  1  0
 12 51  1  0
 12 52  1  0
 14 53  1  0
 14 54  1  0
 14 55  1  0
 15 56  1  1
 16 57  1  0
 16 58  1  0
 17 59  1  0
 19 60  1  6
 20 61  1  0
 20 62  1  0
 21 63  1  0
 21 64  1  0
 22 65  1  6
 23 66  1  0
 25 67  1  0
 25 68  1  0
 25 69  1  0
 26 70  1  0
 26 71  1  0
 26 72  1  0
 28 73  1  0
 28 74  1  0
 28 75  1  0
 29 76  1  0
 29 77  1  0
 30 78  1  0
 30 79  1  0
 32 80  1  0
 32 81  1  0
 32 82  1  0
M  END
>  <meeko>  (10) 
{"is_sidechain": [false], "intermolecular_energy": 2.731, "internal_energy": -0.839}

$$$$
EPH_relaxed_0001_pdb2pqr_Repair_268_r2_0001_out
     RDKit          3D

 82 86  0  0  0  0  0  0  0  0999 V2000
   -0.9170   16.3470   -5.8450 C   0  0  0  0  0  0  0  0  0  0  0  0
    0.1840   15.6580   -6.6550 C   0  0  2  0  0  0  0  0  0  0  0  0
   -0.2120   15.4730   -8.1340 C   0  0  0  0  0  0  0  0  0  0  0  0
    0.4320   16.4930   -9.0760 C   0  0  0  0  0  0  0  0  0  0  0  0
    1.8380   16.1120   -9.4280 C   0  0  2  0  0  0  0  0  0  0  0  0
    2.3250   16.6840  -10.6490 O   0  0  0  0  0  0  0  0  0  0  0  0
    2.1960   15.2530  -10.6260 C   0  0  0  0  0  0  0  0  0  0  0  0
    1.1440   14.7220  -11.5490 C   0  0  0  0  0  0  0  0  0  0  0  0
    3.5070   14.5310  -10.6220 C   0  0  0  0  0  0  0  0  0  0  0  0
    0.5200   14.3070   -6.0330 C   0  0  1  0  0  0  0  0  0  0  0  0
    1.7830   13.6580   -6.6590 C   0  0  0  0  0  0  0  0  0  0  0  0
    2.5080   12.8990   -5.5180 C   0  0  0  0  0  0  0  0  0  0  0  0
    1.4790   12.8560   -4.3630 C   0  0  1  0  0  0  0  0  0  0  0  0
    0.5280   11.6710   -4.7180 C   0  0  0  0  0  0  0  0  0  0  0  0
    2.0650   12.7140   -2.9210 C   0  0  2  0  0  0  0  0  0  0  0  0
    2.8470   11.4150   -2.6590 C   0  0  0  0  0  0  0  0  0  0  0  0
    2.0350   10.2760   -2.1370 C   0  0  0  0  0  0  0  0  0  0  0  0
    0.7950   10.3710   -1.6210 C   0  0  0  0  0  0  0  0  0  0  0  0
    0.1230   11.7370   -1.4320 C   0  0  1  0  0  0  0  0  0  0  0  0
   -0.5100   11.8120   -0.0180 C   0  0  0  0  0  0  0  0  0  0  0  0
   -1.4600   10.6510    0.2590 C   0  0  0  0  0  0  0  0  0  0  0  0
   -0.7410    9.3120    0.1190 C   0  0  2  0  0  0  0  0  0  0  0  0
    0.2360    9.2020    1.1590 O   0  0  0  0  0  0  0  0  0  0  0  0
   -0.0550    9.1270   -1.2640 C   0  0  0  0  0  0  0  0  0  0  0  0
   -1.1330    8.9450   -2.3600 C   0  0  0  0  0  0  0  0  0  0  0  0
    0.7520    7.8010   -1.2230 C   0  0  0  0  0  0  0  0  0  0  0  0
    1.0230   13.0050   -1.7660 C   0  0  1  0  0  0  0  0  0  0  0  0
    1.8520   13.4140   -0.5100 C   0  0  0  0  0  0  0  0  0  0  0  0
    0.0870   14.2260   -2.0980 C   0  0  0  0  0  0  0  0  0  0  0  0
   -0.3610   14.3800   -3.5640 C   0  0  0  0  0  0  0  0  0  0  0  0
    0.8340   14.2820   -4.5160 C   0  0  2  0  0  0  0  0  0  0  0  0
    1.7980   15.4750   -4.1980 C   0  0  0  0  0  0  0  0  0  0  0  0
   -0.7155   16.2209   -4.7710 H   0  0  0  0  0  0  0  0  0  0  0  0
   -0.9369   17.4190   -6.0910 H   0  0  0  0  0  0  0  0  0  0  0  0
   -1.8898   15.8963   -6.0910 H   0  0  0  0  0  0  0  0  0  0  0  0
    1.0699   16.3096   -6.6293 H   0  0  0  0  0  0  0  0  0  0  0  0
    0.0939   14.4653   -8.4519 H   0  0  0  0  0  0  0  0  0  0  0  0
   -1.3003   15.6207   -8.1961 H   0  0  0  0  0  0  0  0  0  0  0  0
   -0.1633   16.5512   -9.9992 H   0  0  0  0  0  0  0  0  0  0  0  0
    0.4586   17.4652   -8.5621 H   0  0  0  0  0  0  0  0  0  0  0  0
    2.1120   16.0462   -8.3647 H   0  0  0  0  0  0  0  0  0  0  0  0
    0.3154   14.3038  -10.9586 H   0  0  0  0  0  0  0  0  0  0  0  0
    0.7670   15.5378  -12.1833 H   0  0  0  0  0  0  0  0  0  0  0  0
    1.5765   13.9342  -12.1833 H   0  0  0  0  0  0  0  0  0  0  0  0
    3.8257   14.3555   -9.5839 H   0  0  0  0  0  0  0  0  0  0  0  0
    3.3961   13.5667  -11.1396 H   0  0  0  0  0  0  0  0  0  0  0  0
    4.2627   15.1402  -11.1396 H   0  0  0  0  0  0  0  0  0  0  0  0
   -0.4211   13.7731   -6.2313 H   0  0  0  0  0  0  0  0  0  0  0  0
    1.4934   12.9572   -7.4559 H   0  0  0  0  0  0  0  0  0  0  0  0
    2.4387   14.4201   -7.1054 H   0  0  0  0  0  0  0  0  0  0  0  0
    2.7759   11.8811   -5.8376 H   0  0  0  0  0  0  0  0  0  0  0  0
    3.4474   13.3888   -5.2220 H   0  0  0  0  0  0  0  0  0  0  0  0
    0.1568   11.2085   -3.7915 H   0  0  0  0  0  0  0  0  0  0  0  0
   -0.3221   12.0467   -5.3064 H   0  0  0  0  0  0  0  0  0  0  0  0
    1.0788   10.9224   -5.3064 H   0  0  0  0  0  0  0  0  0  0  0  0
    2.8104   13.5223   -2.8891 H   0  0  0  0  0  0  0  0  0  0  0  0
    3.3071   11.0982   -3.6066 H   0  0  0  0  0  0  0  0  0  0  0  0
    3.5780   11.6533   -1.8723 H   0  0  0  0  0  0  0  0  0  0  0  0
    2.4881    9.2745   -2.1774 H   0  0  0  0  0  0  0  0  0  0  0  0
   -0.6651   11.7963   -2.1971 H   0  0  0  0  0  0  0  0  0  0  0  0
    0.2958   11.7948    0.7306 H   0  0  0  0  0  0  0  0  0  0  0  0
   -1.0941   12.7425    0.0378 H   0  0  0  0  0  0  0  0  0  0  0  0
   -1.8525   10.7435    1.2824 H   0  0  0  0  0  0  0  0  0  0  0  0
   -2.2806   10.6868   -0.4726 H   0  0  0  0  0  0  0  0  0  0  0  0
   -1.4998    8.5199    0.2016 H   0  0  0  0  0  0  0  0  0  0  0  0
   -0.0440    9.7820    1.8870 H   0  0  0  0  0  0  0  0  0  0  0  0
   -2.1123    8.7797   -1.8872 H   0  0  0  0  0  0  0  0  0  0  0  0
   -1.1759    9.8486   -2.9858 H   0  0  0  0  0  0  0  0  0  0  0  0
   -0.8768    8.0774   -2.9858 H   0  0  0  0  0  0  0  0  0  0  0  0
    0.9283    7.5113   -0.1766 H   0  0  0  0  0  0  0  0  0  0  0  0
    0.1824    7.0093   -1.7317 H   0  0  0  0  0  0  0  0  0  0  0  0
    1.7169    7.9431   -1.7317 H   0  0  0  0  0  0  0  0  0  0  0  0
    1.2979   13.1406    0.4000 H   0  0  0  0  0  0  0  0  0  0  0  0
    2.8188   12.8895   -0.5221 H   0  0  0  0  0  0  0  0  0  0  0  0
    2.0241   14.5004   -0.5221 H   0  0  0  0  0  0  0  0  0  0  0  0
   -0.8189   14.1279   -1.4818 H   0  0  0  0  0  0  0  0  0  0  0  0
    0.6937   15.1191   -1.8873 H   0  0  0  0  0  0  0  0  0  0  0  0
   -1.0800   13.5835   -3.8060 H   0  0  0  0  0  0  0  0  0  0  0  0
   -0.8263   15.3692   -3.6862 H   0  0  0  0  0  0  0  0  0  0  0  0
    1.8913   15.5905   -3.1081 H   0  0  0  0  0  0  0  0  0  0  0  0
    2.7884   15.2717   -4.6313 H   0  0  0  0  0  0  0  0  0  0  0  0
    1.3912   16.4006   -4.6313 H   0  0  0  0  0  0  0  0  0  0  0  0
  1  2  1  0
  2  3  1  0
  3  4  1  0
  4  5  1  0
  5  6  1  0
  6  7  1  0
  7  8  1  0
  7  9  1  0
  2 10  1  0
 10 11  1  0
 11 12  1  0
 12 13  1  0
 13 14  1  6
 13 15  1  0
 15 16  1  0
 16 17  1  0
 17 18  2  0
 18 19  1  0
 19 20  1  0
 20 21  1  0
 21 22  1  0
 22 23  1  0
 22 24  1  0
 24 25  1  0
 24 26  1  0
 19 27  1  0
 27 28  1  1
 27 29  1  0
 29 30  1  0
 30 31  1  0
 31 32  1  6
  7  5  1  0
 31 10  1  0
 31 13  1  0
 27 15  1  0
 24 18  1  0
  1 33  1  0
  1 34  1  0
  1 35  1  0
  2 36  1  6
  3 37  1  0
  3 38  1  0
  4 39  1  0
  4 40  1  0
  5 41  1  1
  8 42  1  0
  8 43  1  0
  8 44  1  0
  9 45  1  0
  9 46  1  0
  9 47  1  0
 10 48  1  1
 11 49  1  0
 11 50  1  0
 12 51  1  0
 12 52  1  0
 14 53  1  0
 14 54  1  0
 14 55  1  0
 15 56  1  6
 16 57  1  0
 16 58  1  0
 17 59  1  0
 19 60  1  6
 20 61  1  0
 20 62  1  0
 21 63  1  0
 21 64  1  0
 22 65  1  1
 23 66  1  0
 25 67  1  0
 25 68  1  0
 25 69  1  0
 26 70  1  0
 26 71  1  0
 26 72  1  0
 28 73  1  0
 28 74  1  0
 28 75  1  0
 29 76  1  0
 29 77  1  0
 30 78  1  0
 30 79  1  0
 32 80  1  0
 32 81  1  0
 32 82  1  0
M  END
>  <meeko>  (11) 
{"is_sidechain": [false], "intermolecular_energy": 2.731, "internal_energy": -0.839}

$$$$
EPH_relaxed_0001_pdb2pqr_Repair_268_r2_0001_out
     RDKit          3D

 82 86  0  0  0  0  0  0  0  0999 V2000
   -2.0660    7.7630   -2.2120 C   0  0  0  0  0  0  0  0  0  0  0  0
   -2.2360    8.4370   -0.8470 C   0  0  2  0  0  0  0  0  0  0  0  0
   -3.7050    8.4410   -0.3800 C   0  0  0  0  0  0  0  0  0  0  0  0
   -4.6670    7.7730   -1.3660 C   0  0  0  0  0  0  0  0  0  0  0  0
   -5.8680    7.2060   -0.6720 C   0  0  2  0  0  0  0  0  0  0  0  0
   -6.4740    6.0910   -1.3390 O   0  0  0  0  0  0  0  0  0  0  0  0
   -7.2740    7.2800   -1.2370 C   0  0  0  0  0  0  0  0  0  0  0  0
   -7.5520    7.9410   -2.5510 C   0  0  0  0  0  0  0  0  0  0  0  0
   -8.4310    7.1500   -0.2960 C   0  0  0  0  0  0  0  0  0  0  0  0
   -1.7030    9.8640   -0.9020 C   0  0  1  0  0  0  0  0  0  0  0  0
   -1.2540   10.3880    0.4880 C   0  0  0  0  0  0  0  0  0  0  0  0
   -0.0300   11.3080    0.2450 C   0  0  0  0  0  0  0  0  0  0  0  0
   -0.0190   11.5480   -1.2830 C   0  0  1  0  0  0  0  0  0  0  0  0
   -1.0720   12.6750   -1.5200 C   0  0  0  0  0  0  0  0  0  0  0  0
    1.3640   11.9070   -1.9170 C   0  0  2  0  0  0  0  0  0  0  0  0
    1.9900   13.2210   -1.4150 C   0  0  0  0  0  0  0  0  0  0  0  0
    1.6300   14.4390   -2.1990 C   0  0  0  0  0  0  0  0  0  0  0  0
    1.0720   14.4440   -3.4240 C   0  0  0  0  0  0  0  0  0  0  0  0
    0.8350   13.1340   -4.1870 C   0  0  1  0  0  0  0  0  0  0  0  0
    1.3220   13.2930   -5.6510 C   0  0  0  0  0  0  0  0  0  0  0  0
    0.6950   14.4970   -6.3490 C   0  0  0  0  0  0  0  0  0  0  0  0
    1.0010   15.7860   -5.5920 C   0  0  2  0  0  0  0  0  0  0  0  0
    2.4060   16.0460   -5.6730 O   0  0  0  0  0  0  0  0  0  0  0  0
    0.5640   15.7410   -4.1010 C   0  0  0  0  0  0  0  0  0  0  0  0
   -0.9820   15.7630   -4.0120 C   0  0  0  0  0  0  0  0  0  0  0  0
    1.0570   17.0450   -3.4190 C   0  0  0  0  0  0  0  0  0  0  0  0
    1.3970   11.8180   -3.4960 C   0  0  1  0  0  0  0  0  0  0  0  0
    2.8880   11.6010   -3.8990 C   0  0  0  0  0  0  0  0  0  0  0  0
    0.6030   10.5720   -4.0420 C   0  0  0  0  0  0  0  0  0  0  0  0
   -0.6930   10.1950   -3.2990 C   0  0  0  0  0  0  0  0  0  0  0  0
   -0.4590   10.1250   -1.7870 C   0  0  2  0  0  0  0  0  0  0  0  0
    0.5800    8.9830   -1.5170 C   0  0  0  0  0  0  0  0  0  0  0  0
   -1.7993    6.7056   -2.0681 H   0  0  0  0  0  0  0  0  0  0  0  0
   -3.0092    7.8301   -2.7741 H   0  0  0  0  0  0  0  0  0  0  0  0
   -1.2674    8.2694   -2.7741 H   0  0  0  0  0  0  0  0  0  0  0  0
   -1.6589    7.8524   -0.1154 H   0  0  0  0  0  0  0  0  0  0  0  0
   -3.7656    7.9070    0.5798 H   0  0  0  0  0  0  0  0  0  0  0  0
   -4.0121    9.4939   -0.2952 H   0  0  0  0  0  0  0  0  0  0  0  0
   -5.0001    8.5207   -2.1009 H   0  0  0  0  0  0  0  0  0  0  0  0
   -4.1337    6.9463   -1.8581 H   0  0  0  0  0  0  0  0  0  0  0  0
   -5.4535    7.4712    0.3118 H   0  0  0  0  0  0  0  0  0  0  0  0
   -7.9730    8.9421   -2.3761 H   0  0  0  0  0  0  0  0  0  0  0  0
   -6.6157    8.0315   -3.1213 H   0  0  0  0  0  0  0  0  0  0  0  0
   -8.2715    7.3351   -3.1213 H   0  0  0  0  0  0  0  0  0  0  0  0
   -8.0666    7.1909    0.7411 H   0  0  0  0  0  0  0  0  0  0  0  0
   -9.1386    7.9743   -0.4688 H   0  0  0  0  0  0  0  0  0  0  0  0
   -8.9380    6.1892   -0.4688 H   0  0  0  0  0  0  0  0  0  0  0  0
   -2.5808   10.3721   -1.3278 H   0  0  0  0  0  0  0  0  0  0  0  0
   -2.0685   10.9577    0.9593 H   0  0  0  0  0  0  0  0  0  0  0  0
   -0.9955    9.5558    1.1593 H   0  0  0  0  0  0  0  0  0  0  0  0
   -0.1452   12.2585    0.7865 H   0  0  0  0  0  0  0  0  0  0  0  0
    0.9076   10.8579    0.6032 H   0  0  0  0  0  0  0  0  0  0  0  0
   -1.4270   13.0549   -0.5506 H   0  0  0  0  0  0  0  0  0  0  0  0
   -0.6094   13.4954   -2.0882 H   0  0  0  0  0  0  0  0  0  0  0  0
   -1.9219   12.2691   -2.0882 H   0  0  0  0  0  0  0  0  0  0  0  0
    2.0122   11.1026   -1.5392 H   0  0  0  0  0  0  0  0  0  0  0  0
    1.6648   13.3772   -0.3759 H   0  0  0  0  0  0  0  0  0  0  0  0
    3.0781   13.1004   -1.5227 H   0  0  0  0  0  0  0  0  0  0  0  0
    1.8383   15.4151   -1.7366 H   0  0  0  0  0  0  0  0  0  0  0  0
   -0.2518   12.9647   -4.1714 H   0  0  0  0  0  0  0  0  0  0  0  0
    2.4150   13.4172   -5.6475 H   0  0  0  0  0  0  0  0  0  0  0  0
    1.0187   12.3915   -6.2035 H   0  0  0  0  0  0  0  0  0  0  0  0
    1.1003   14.5734   -7.3687 H   0  0  0  0  0  0  0  0  0  0  0  0
   -0.3957   14.3573   -6.3783 H   0  0  0  0  0  0  0  0  0  0  0  0
    0.4193   16.5910   -6.0649 H   0  0  0  0  0  0  0  0  0  0  0  0
    2.6980   16.3620   -4.8020 H   0  0  0  0  0  0  0  0  0  0  0  0
   -1.2884   15.7674   -2.9556 H   0  0  0  0  0  0  0  0  0  0  0  0
   -1.3650   16.6667   -4.5086 H   0  0  0  0  0  0  0  0  0  0  0  0
   -1.3906   14.8706   -4.5086 H   0  0  0  0  0  0  0  0  0  0  0  0
    1.0123   16.9268   -2.3263 H   0  0  0  0  0  0  0  0  0  0  0  0
    2.0942   17.2486   -3.7237 H   0  0  0  0  0  0  0  0  0  0  0  0
    0.4140   17.8838   -3.7237 H   0  0  0  0  0  0  0  0  0  0  0  0
    3.5037   11.5114   -2.9919 H   0  0  0  0  0  0  0  0  0  0  0  0
    2.9766   10.6805   -4.4947 H   0  0  0  0  0  0  0  0  0  0  0  0
    3.2353   12.4581   -4.4947 H   0  0  0  0  0  0  0  0  0  0  0  0
    0.3381   10.7789   -5.0894 H   0  0  0  0  0  0  0  0  0  0  0  0
    1.2774    9.7149   -3.8981 H   0  0  0  0  0  0  0  0  0  0  0  0
   -1.4616   10.9533   -3.5092 H   0  0  0  0  0  0  0  0  0  0  0  0
   -1.0219    9.2053   -3.6487 H   0  0  0  0  0  0  0  0  0  0  0  0
    0.7028    8.8480   -0.4322 H   0  0  0  0  0  0  0  0  0  0  0  0
    0.2188    8.0453   -1.9646 H   0  0  0  0  0  0  0  0  0  0  0  0
    1.5475    9.2542   -1.9646 H   0  0  0  0  0  0  0  0  0  0  0  0
  1  2  1  0
  2  3  1  0
  3  4  1  0
  4  5  1  0
  5  6  1  0
  6  7  1  0
  7  8  1  0
  7  9  1  0
  2 10  1  0
 10 11  1  0
 11 12  1  0
 12 13  1  0
 13 14  1  1
 13 15  1  0
 15 16  1  0
 16 17  1  0
 17 18  2  0
 18 19  1  0
 19 20  1  0
 20 21  1  0
 21 22  1  0
 22 23  1  0
 22 24  1  0
 24 25  1  0
 24 26  1  0
 19 27  1  0
 27 28  1  6
 27 29  1  0
 29 30  1  0
 30 31  1  0
 31 32  1  6
  7  5  1  0
 31 10  1  0
 31 13  1  0
 27 15  1  0
 24 18  1  0
  1 33  1  0
  1 34  1  0
  1 35  1  0
  2 36  1  1
  3 37  1  0
  3 38  1  0
  4 39  1  0
  4 40  1  0
  5 41  1  1
  8 42  1  0
  8 43  1  0
  8 44  1  0
  9 45  1  0
  9 46  1  0
  9 47  1  0
 10 48  1  6
 11 49  1  0
 11 50  1  0
 12 51  1  0
 12 52  1  0
 14 53  1  0
 14 54  1  0
 14 55  1  0
 15 56  1  1
 16 57  1  0
 16 58  1  0
 17 59  1  0
 19 60  1  6
 20 61  1  0
 20 62  1  0
 21 63  1  0
 21 64  1  0
 22 65  1  6
 23 66  1  0
 25 67  1  0
 25 68  1  0
 25 69  1  0
 26 70  1  0
 26 71  1  0
 26 72  1  0
 28 73  1  0
 28 74  1  0
 28 75  1  0
 29 76  1  0
 29 77  1  0
 30 78  1  0
 30 79  1  0
 32 80  1  0
 32 81  1  0
 32 82  1  0
M  END
>  <meeko>  (12) 
{"is_sidechain": [false], "intermolecular_energy": 2.731, "internal_energy": -0.839}

$$$$
EPH_relaxed_0001_pdb2pqr_Repair_268_r2_0001_out
     RDKit          3D

 82 86  0  0  0  0  0  0  0  0999 V2000
    0.3130   17.8490   -2.5120 C   0  0  0  0  0  0  0  0  0  0  0  0
    0.2360   17.1150   -1.1700 C   0  0  2  0  0  0  0  0  0  0  0  0
    0.4320   18.0690    0.0250 C   0  0  0  0  0  0  0  0  0  0  0  0
    1.1520   19.3710   -0.3380 C   0  0  0  0  0  0  0  0  0  0  0  0
    2.5740   19.3680    0.1350 C   0  0  2  0  0  0  0  0  0  0  0  0
    2.8720   18.3820    1.1320 O   0  0  0  0  0  0  0  0  0  0  0  0
    2.9890   19.7540    1.5430 C   0  0  0  0  0  0  0  0  0  0  0  0
    1.9800   20.1700    2.5670 C   0  0  0  0  0  0  0  0  0  0  0  0
    4.4000   20.1940    1.7780 C   0  0  0  0  0  0  0  0  0  0  0  0
    1.2780   16.0030   -1.1260 C   0  0  1  0  0  0  0  0  0  0  0  0
    1.5310   15.4800    0.3130 C   0  0  0  0  0  0  0  0  0  0  0  0
    1.8130   13.9600    0.1940 C   0  0  0  0  0  0  0  0  0  0  0  0
    2.0400   13.7240   -1.3180 C   0  0  1  0  0  0  0  0  0  0  0  0
    3.5210   14.1460   -1.5720 C   0  0  0  0  0  0  0  0  0  0  0  0
    1.7540   12.2790   -1.8420 C   0  0  2  0  0  0  0  0  0  0  0  0
    2.6460   11.1780   -1.2410 C   0  0  0  0  0  0  0  0  0  0  0  0
    3.9060   10.8980   -1.9910 C   0  0  0  0  0  0  0  0  0  0  0  0
    4.1730   11.2980   -3.2480 C   0  0  0  0  0  0  0  0  0  0  0  0
    3.1150   12.0290   -4.0840 C   0  0  1  0  0  0  0  0  0  0  0  0
    3.0570   11.4070   -5.5040 C   0  0  0  0  0  0  0  0  0  0  0  0
    4.4220   11.3790   -6.1860 C   0  0  0  0  0  0  0  0  0  0  0  0
    5.4320   10.5940   -5.3530 C   0  0  2  0  0  0  0  0  0  0  0  0
    5.0400    9.2180   -5.3300 O   0  0  0  0  0  0  0  0  0  0  0  0
    5.5680   11.1240   -3.8980 C   0  0  0  0  0  0  0  0  0  0  0  0
    6.2750   12.5020   -3.9090 C   0  0  0  0  0  0  0  0  0  0  0  0
    6.5090   10.1600   -3.1260 C   0  0  0  0  0  0  0  0  0  0  0  0
    1.6780   12.1640   -3.4180 C   0  0  1  0  0  0  0  0  0  0  0  0
    0.8250   10.8970   -3.7320 C   0  0  0  0  0  0  0  0  0  0  0  0
    0.9220   13.3810   -4.0710 C   0  0  0  0  0  0  0  0  0  0  0  0
    1.1520   14.7650   -3.4340 C   0  0  0  0  0  0  0  0  0  0  0  0
    0.9680   14.7060   -1.9140 C   0  0  2  0  0  0  0  0  0  0  0  0
   -0.5200   14.3050   -1.6280 C   0  0  0  0  0  0  0  0  0  0  0  0
    0.4262   18.9285   -2.3335 H   0  0  0  0  0  0  0  0  0  0  0  0
    1.1773   17.4791   -3.0832 H   0  0  0  0  0  0  0  0  0  0  0  0
   -0.6092   17.6665   -3.0832 H   0  0  0  0  0  0  0  0  0  0  0  0
   -0.7722   16.6832   -1.0854 H   0  0  0  0  0  0  0  0  0  0  0  0
   -0.5576   18.3217    0.4335 H   0  0  0  0  0  0  0  0  0  0  0  0
    1.0659   17.5440    0.7548 H   0  0  0  0  0  0  0  0  0  0  0  0
    1.1401   19.4922   -1.4312 H   0  0  0  0  0  0  0  0  0  0  0  0
    0.6278   20.2022    0.1562 H   0  0  0  0  0  0  0  0  0  0  0  0
    2.9277   19.6944   -0.8541 H   0  0  0  0  0  0  0  0  0  0  0  0
    2.3888   20.0014    3.5742 H   0  0  0  0  0  0  0  0  0  0  0  0
    1.7471   21.2375    2.4397 H   0  0  0  0  0  0  0  0  0  0  0  0
    1.0624   19.5768    2.4397 H   0  0  0  0  0  0  0  0  0  0  0  0
    4.5902   20.2533    2.8598 H   0  0  0  0  0  0  0  0  0  0  0  0
    5.0908   19.4686    1.3235 H   0  0  0  0  0  0  0  0  0  0  0  0
    4.5561   21.1835    1.3235 H   0  0  0  0  0  0  0  0  0  0  0  0
    2.1283   16.5280   -1.5858 H   0  0  0  0  0  0  0  0  0  0  0  0
    2.3980   15.9925    0.7552 H   0  0  0  0  0  0  0  0  0  0  0  0
    0.6626   15.6708    0.9607 H   0  0  0  0  0  0  0  0  0  0  0  0
    2.7094   13.6849    0.7691 H   0  0  0  0  0  0  0  0  0  0  0  0
    0.9893   13.3498    0.5930 H   0  0  0  0  0  0  0  0  0  0  0  0
    4.0312   14.2914   -0.6084 H   0  0  0  0  0  0  0  0  0  0  0  0
    4.0339   13.3583   -2.1433 H   0  0  0  0  0  0  0  0  0  0  0  0
    3.5416   15.0858   -2.1433 H   0  0  0  0  0  0  0  0  0  0  0  0
    0.7413   12.0859   -1.4585 H   0  0  0  0  0  0  0  0  0  0  0  0
    2.9188   11.4815   -0.2195 H   0  0  0  0  0  0  0  0  0  0  0  0
    2.0549   10.2512   -1.2823 H   0  0  0  0  0  0  0  0  0  0  0  0
    4.6818   10.3155   -1.4725 H   0  0  0  0  0  0  0  0  0  0  0  0
    3.4473   13.0756   -4.1483 H   0  0  0  0  0  0  0  0  0  0  0  0
    2.6822   10.3760   -5.4225 H   0  0  0  0  0  0  0  0  0  0  0  0
    2.3904   12.0325   -6.1159 H   0  0  0  0  0  0  0  0  0  0  0  0
    4.3218   10.9031   -7.1727 H   0  0  0  0  0  0  0  0  0  0  0  0
    4.7826   12.4128   -6.2924 H   0  0  0  0  0  0  0  0  0  0  0  0
    6.4177   10.7177   -5.8253 H   0  0  0  0  0  0  0  0  0  0  0  0
    5.7640    8.7000   -5.7190 H   0  0  0  0  0  0  0  0  0  0  0  0
    6.4457   12.8348   -2.8745 H   0  0  0  0  0  0  0  0  0  0  0  0
    7.2398   12.4150   -4.4301 H   0  0  0  0  0  0  0  0  0  0  0  0
    5.6416   13.2349   -4.4301 H   0  0  0  0  0  0  0  0  0  0  0  0
    6.3710   10.3013   -2.0439 H   0  0  0  0  0  0  0  0  0  0  0  0
    6.2686    9.1205   -3.3936 H   0  0  0  0  0  0  0  0  0  0  0  0
    7.5540   10.3752   -3.3936 H   0  0  0  0  0  0  0  0  0  0  0  0
    0.5078   10.4258   -2.7900 H   0  0  0  0  0  0  0  0  0  0  0  0
   -0.0623   11.1873   -4.3138 H   0  0  0  0  0  0  0  0  0  0  0  0
    1.4278   10.1841   -4.3138 H   0  0  0  0  0  0  0  0  0  0  0  0
    1.2370   13.4425   -5.1231 H   0  0  0  0  0  0  0  0  0  0  0  0
   -0.1470   13.1695   -3.9212 H   0  0  0  0  0  0  0  0  0  0  0  0
    2.1752   15.0997   -3.6600 H   0  0  0  0  0  0  0  0  0  0  0  0
    0.4162   15.4692   -3.8495 H   0  0  0  0  0  0  0  0  0  0  0  0
   -0.6854   14.2604   -0.5414 H   0  0  0  0  0  0  0  0  0  0  0  0
   -1.1932   15.0538   -2.0709 H   0  0  0  0  0  0  0  0  0  0  0  0
   -0.7258   13.3194   -2.0709 H   0  0  0  0  0  0  0  0  0  0  0  0
  1  2  1  0
  2  3  1  0
  3  4  1  0
  4  5  1  0
  5  6  1  0
  6  7  1  0
  7  8  1  0
  7  9  1  0
  2 10  1  0
 10 11  1  0
 11 12  1  0
 12 13  1  0
 13 14  1  6
 13 15  1  0
 15 16  1  0
 16 17  1  0
 17 18  2  0
 18 19  1  0
 19 20  1  0
 20 21  1  0
 21 22  1  0
 22 23  1  0
 22 24  1  0
 24 25  1  0
 24 26  1  0
 19 27  1  0
 27 28  1  1
 27 29  1  0
 29 30  1  0
 30 31  1  0
 31 32  1  6
  7  5  1  0
 31 10  1  0
 31 13  1  0
 27 15  1  0
 24 18  1  0
  1 33  1  0
  1 34  1  0
  1 35  1  0
  2 36  1  1
  3 37  1  0
  3 38  1  0
  4 39  1  0
  4 40  1  0
  5 41  1  6
  8 42  1  0
  8 43  1  0
  8 44  1  0
  9 45  1  0
  9 46  1  0
  9 47  1  0
 10 48  1  6
 11 49  1  0
 11 50  1  0
 12 51  1  0
 12 52  1  0
 14 53  1  0
 14 54  1  0
 14 55  1  0
 15 56  1  1
 16 57  1  0
 16 58  1  0
 17 59  1  0
 19 60  1  6
 20 61  1  0
 20 62  1  0
 21 63  1  0
 21 64  1  0
 22 65  1  6
 23 66  1  0
 25 67  1  0
 25 68  1  0
 25 69  1  0
 26 70  1  0
 26 71  1  0
 26 72  1  0
 28 73  1  0
 28 74  1  0
 28 75  1  0
 29 76  1  0
 29 77  1  0
 30 78  1  0
 30 79  1  0
 32 80  1  0
 32 81  1  0
 32 82  1  0
M  END
>  <meeko>  (13) 
{"is_sidechain": [false], "intermolecular_energy": 2.731, "internal_energy": -0.839}

$$$$
EPH_relaxed_0001_pdb2pqr_Repair_268_r2_0001_out
     RDKit          3D

 82 86  0  0  0  0  0  0  0  0999 V2000
    0.1430    9.8300   -4.5520 C   0  0  0  0  0  0  0  0  0  0  0  0
    1.1990   10.5670   -3.7240 C   0  0  2  0  0  0  0  0  0  0  0  0
    1.6740    9.7350   -2.5150 C   0  0  0  0  0  0  0  0  0  0  0  0
    0.6850    8.6450   -2.0920 C   0  0  0  0  0  0  0  0  0  0  0  0
   -0.1850    9.0960   -0.9580 C   0  0  2  0  0  0  0  0  0  0  0  0
   -0.7630    8.0340   -0.1880 O   0  0  0  0  0  0  0  0  0  0  0  0
   -1.6840    8.8660   -0.9110 C   0  0  0  0  0  0  0  0  0  0  0  0
   -2.4000    8.1610   -2.0200 C   0  0  0  0  0  0  0  0  0  0  0  0
   -2.5160    9.7490   -0.0340 C   0  0  0  0  0  0  0  0  0  0  0  0
    0.6470   11.9060   -3.2500 C   0  0  1  0  0  0  0  0  0  0  0  0
   -0.8240   11.8080   -2.7660 C   0  0  0  0  0  0  0  0  0  0  0  0
   -0.9760   12.8060   -1.5890 C   0  0  0  0  0  0  0  0  0  0  0  0
    0.3010   13.6760   -1.6490 C   0  0  1  0  0  0  0  0  0  0  0  0
    0.0100   14.7400   -2.7540 C   0  0  0  0  0  0  0  0  0  0  0  0
    0.7460   14.3450   -0.3080 C   0  0  2  0  0  0  0  0  0  0  0  0
   -0.2580   15.3480    0.2860 C   0  0  0  0  0  0  0  0  0  0  0  0
   -0.0800   16.7640   -0.1530 C   0  0  0  0  0  0  0  0  0  0  0  0
    1.0120   17.2630   -0.7600 C   0  0  0  0  0  0  0  0  0  0  0  0
    2.2590   16.3960   -0.9760 C   0  0  1  0  0  0  0  0  0  0  0  0
    3.5220   17.1910   -0.5550 C   0  0  0  0  0  0  0  0  0  0  0  0
    3.6230   18.5420   -1.2560 C   0  0  0  0  0  0  0  0  0  0  0  0
    2.3920   19.3980   -0.9700 C   0  0  2  0  0  0  0  0  0  0  0  0
    2.3820   19.7410    0.4190 O   0  0  0  0  0  0  0  0  0  0  0  0
    1.0570   18.6960   -1.3450 C   0  0  0  0  0  0  0  0  0  0  0  0
    0.9360   18.5970   -2.8860 C   0  0  0  0  0  0  0  0  0  0  0  0
   -0.1090   19.6070   -0.8760 C   0  0  0  0  0  0  0  0  0  0  0  0
    2.2110   14.9420   -0.3360 C   0  0  1  0  0  0  0  0  0  0  0  0
    2.6980   14.9970    1.1450 C   0  0  0  0  0  0  0  0  0  0  0  0
    3.2230   14.0090   -1.1010 C   0  0  0  0  0  0  0  0  0  0  0  0
    2.6890   13.2830   -2.3510 C   0  0  0  0  0  0  0  0  0  0  0  0
    1.3590   12.5850   -2.0530 C   0  0  2  0  0  0  0  0  0  0  0  0
    1.6250   11.4940   -0.9610 C   0  0  0  0  0  0  0  0  0  0  0  0
   -0.5699    9.3325   -3.8780 H   0  0  0  0  0  0  0  0  0  0  0  0
   -0.3940   10.5505   -5.1865 H   0  0  0  0  0  0  0  0  0  0  0  0
    0.6341    9.0775   -5.1865 H   0  0  0  0  0  0  0  0  0  0  0  0
    2.0711   10.7336   -4.3733 H   0  0  0  0  0  0  0  0  0  0  0  0
    2.6286    9.2553   -2.7769 H   0  0  0  0  0  0  0  0  0  0  0  0
    1.7718   10.4277   -1.6662 H   0  0  0  0  0  0  0  0  0  0  0  0
    0.0471    8.3895   -2.9510 H   0  0  0  0  0  0  0  0  0  0  0  0
    1.2614    7.7707   -1.7554 H   0  0  0  0  0  0  0  0  0  0  0  0
    0.4279    9.9982   -0.8155 H   0  0  0  0  0  0  0  0  0  0  0  0
   -3.1231    7.4491   -1.5954 H   0  0  0  0  0  0  0  0  0  0  0  0
   -2.9318    8.8979   -2.6399 H   0  0  0  0  0  0  0  0  0  0  0  0
   -1.6715    7.6179   -2.6399 H   0  0  0  0  0  0  0  0  0  0  0  0
   -2.3031    9.5231    1.0213 H   0  0  0  0  0  0  0  0  0  0  0  0
   -2.2744   10.8023   -0.2394 H   0  0  0  0  0  0  0  0  0  0  0  0
   -3.5818    9.5704   -0.2394 H   0  0  0  0  0  0  0  0  0  0  0  0
    0.7961   12.5007   -4.1633 H   0  0  0  0  0  0  0  0  0  0  0  0
   -1.5100   12.0780   -3.5824 H   0  0  0  0  0  0  0  0  0  0  0  0
   -1.0675   10.7834   -2.4485 H   0  0  0  0  0  0  0  0  0  0  0  0
   -1.8751   13.4262   -1.7192 H   0  0  0  0  0  0  0  0  0  0  0  0
   -1.0885   12.2959   -0.6210 H   0  0  0  0  0  0  0  0  0  0  0  0
   -0.2520   15.6978   -2.2808 H   0  0  0  0  0  0  0  0  0  0  0  0
    0.9048   14.8728   -3.3798 H   0  0  0  0  0  0  0  0  0  0  0  0
   -0.8279   14.3989   -3.3798 H   0  0  0  0  0  0  0  0  0  0  0  0
    0.7621   13.4919    0.3863 H   0  0  0  0  0  0  0  0  0  0  0  0
   -1.2699   15.0273   -0.0024 H   0  0  0  0  0  0  0  0  0  0  0  0
   -0.0872   15.3424    1.3726 H   0  0  0  0  0  0  0  0  0  0  0  0
   -0.9123   17.4580    0.0359 H   0  0  0  0  0  0  0  0  0  0  0  0
    2.2968   16.1804   -2.0540 H   0  0  0  0  0  0  0  0  0  0  0  0
    3.4870   17.3592    0.5315 H   0  0  0  0  0  0  0  0  0  0  0  0
    4.4020   16.5978   -0.8445 H   0  0  0  0  0  0  0  0  0  0  0  0
    4.5192   19.0684   -0.8958 H   0  0  0  0  0  0  0  0  0  0  0  0
    3.6875   18.3709   -2.3407 H   0  0  0  0  0  0  0  0  0  0  0  0
    2.4611   20.2967   -1.6005 H   0  0  0  0  0  0  0  0  0  0  0  0
    1.4660   19.9590    0.6620 H   0  0  0  0  0  0  0  0  0  0  0  0
    0.1088   17.9202   -3.1461 H   0  0  0  0  0  0  0  0  0  0  0  0
    0.7379   19.5954   -3.3031 H   0  0  0  0  0  0  0  0  0  0  0  0
    1.8754   18.2051   -3.3031 H   0  0  0  0  0  0  0  0  0  0  0  0
   -0.1375   19.6293    0.2234 H   0  0  0  0  0  0  0  0  0  0  0  0
    0.0451   20.6264   -1.2595 H   0  0  0  0  0  0  0  0  0  0  0  0
   -1.0609   19.2109   -1.2595 H   0  0  0  0  0  0  0  0  0  0  0  0
    1.8341   14.8994    1.8189 H   0  0  0  0  0  0  0  0  0  0  0  0
    3.4024   14.1727    1.3302 H   0  0  0  0  0  0  0  0  0  0  0  0
    3.2009   15.9576    1.3302 H   0  0  0  0  0  0  0  0  0  0  0  0
    4.0755   14.6292   -1.4150 H   0  0  0  0  0  0  0  0  0  0  0  0
    3.4730   13.2094   -0.3882 H   0  0  0  0  0  0  0  0  0  0  0  0
    2.5377   14.0169   -3.1563 H   0  0  0  0  0  0  0  0  0  0  0  0
    3.4235   12.5230   -2.6558 H   0  0  0  0  0  0  0  0  0  0  0  0
    1.5160   11.9411    0.0381 H   0  0  0  0  0  0  0  0  0  0  0  0
    0.9003   10.6746   -1.0771 H   0  0  0  0  0  0  0  0  0  0  0  0
    2.6455   11.1001   -1.0771 H   0  0  0  0  0  0  0  0  0  0  0  0
  1  2  1  0
  2  3  1  0
  3  4  1  0
  4  5  1  0
  5  6  1  0
  6  7  1  0
  7  8  1  0
  7  9  1  0
  2 10  1  0
 10 11  1  0
 11 12  1  0
 12 13  1  0
 13 14  1  6
 13 15  1  0
 15 16  1  0
 16 17  1  0
 17 18  2  0
 18 19  1  0
 19 20  1  0
 20 21  1  0
 21 22  1  0
 22 23  1  0
 22 24  1  0
 24 25  1  0
 24 26  1  0
 19 27  1  0
 27 28  1  1
 27 29  1  0
 29 30  1  0
 30 31  1  0
 31 32  1  1
  7  5  1  0
 31 10  1  0
 31 13  1  0
 27 15  1  0
 24 18  1  0
  1 33  1  0
  1 34  1  0
  1 35  1  0
  2 36  1  6
  3 37  1  0
  3 38  1  0
  4 39  1  0
  4 40  1  0
  5 41  1  1
  8 42  1  0
  8 43  1  0
  8 44  1  0
  9 45  1  0
  9 46  1  0
  9 47  1  0
 10 48  1  6
 11 49  1  0
 11 50  1  0
 12 51  1  0
 12 52  1  0
 14 53  1  0
 14 54  1  0
 14 55  1  0
 15 56  1  1
 16 57  1  0
 16 58  1  0
 17 59  1  0
 19 60  1  6
 20 61  1  0
 20 62  1  0
 21 63  1  0
 21 64  1  0
 22 65  1  6
 23 66  1  0
 25 67  1  0
 25 68  1  0
 25 69  1  0
 26 70  1  0
 26 71  1  0
 26 72  1  0
 28 73  1  0
 28 74  1  0
 28 75  1  0
 29 76  1  0
 29 77  1  0
 30 78  1  0
 30 79  1  0
 32 80  1  0
 32 81  1  0
 32 82  1  0
M  END
>  <meeko>  (14) 
{"is_sidechain": [false], "intermolecular_energy": 2.731, "internal_energy": -0.839}

$$$$
EPH_relaxed_0001_pdb2pqr_Repair_268_r2_0001_out
     RDKit          3D

 82 86  0  0  0  0  0  0  0  0999 V2000
    0.9360   14.9290   -2.6400 C   0  0  0  0  0  0  0  0  0  0  0  0
    1.1910   14.2540   -3.9910 C   0  0  2  0  0  0  0  0  0  0  0  0
    0.4810   14.9850   -5.1480 C   0  0  0  0  0  0  0  0  0  0  0  0
    1.0090   14.6030   -6.5330 C   0  0  0  0  0  0  0  0  0  0  0  0
    0.7990   15.7030   -7.5290 C   0  0  2  0  0  0  0  0  0  0  0  0
    0.4160   15.2610   -8.8380 O   0  0  0  0  0  0  0  0  0  0  0  0
    1.6900   15.9180   -8.7380 C   0  0  0  0  0  0  0  0  0  0  0  0
    2.8590   15.0260   -9.0150 C   0  0  0  0  0  0  0  0  0  0  0  0
    1.7200   17.2740   -9.3730 C   0  0  0  0  0  0  0  0  0  0  0  0
    0.7380   12.8000   -3.9380 C   0  0  1  0  0  0  0  0  0  0  0  0
    1.8650   11.8090   -4.3360 C   0  0  0  0  0  0  0  0  0  0  0  0
    1.6730   10.5400   -3.4660 C   0  0  0  0  0  0  0  0  0  0  0  0
    0.2660   10.7030   -2.8450 C   0  0  1  0  0  0  0  0  0  0  0  0
   -0.7220   10.2400   -3.9620 C   0  0  0  0  0  0  0  0  0  0  0  0
    0.0120    9.9460   -1.5000 C   0  0  2  0  0  0  0  0  0  0  0  0
    0.1140    8.4130   -1.5850 C   0  0  0  0  0  0  0  0  0  0  0  0
   -1.1630    7.7060   -1.8990 C   0  0  0  0  0  0  0  0  0  0  0  0
   -2.3940    8.2440   -1.8250 C   0  0  0  0  0  0  0  0  0  0  0  0
   -2.6000    9.6690   -1.2960 C   0  0  1  0  0  0  0  0  0  0  0  0
   -3.7700    9.6800   -0.2770 C   0  0  0  0  0  0  0  0  0  0  0  0
   -5.0500    9.0800   -0.8510 C   0  0  0  0  0  0  0  0  0  0  0  0
   -4.8200    7.6430   -1.3120 C   0  0  2  0  0  0  0  0  0  0  0  0
   -4.5520    6.8280   -0.1670 O   0  0  0  0  0  0  0  0  0  0  0  0
   -3.6570    7.5070   -2.3340 C   0  0  0  0  0  0  0  0  0  0  0  0
   -4.0760    8.1360   -3.6860 C   0  0  0  0  0  0  0  0  0  0  0  0
   -3.4380    5.9950   -2.6090 C   0  0  0  0  0  0  0  0  0  0  0  0
   -1.3010   10.3970   -0.7400 C   0  0  1  0  0  0  0  0  0  0  0  0
   -1.0910   10.0380    0.7620 C   0  0  0  0  0  0  0  0  0  0  0  0
   -1.5200   11.9550   -0.7980 C   0  0  0  0  0  0  0  0  0  0  0  0
   -1.1390   12.6630   -2.1120 C   0  0  0  0  0  0  0  0  0  0  0  0
    0.2640   12.2510   -2.5690 C   0  0  2  0  0  0  0  0  0  0  0  0
    1.2820   12.7230   -1.4760 C   0  0  0  0  0  0  0  0  0  0  0  0
    1.1982   14.2348   -1.8280 H   0  0  0  0  0  0  0  0  0  0  0  0
    1.5535   15.8359   -2.5609 H   0  0  0  0  0  0  0  0  0  0  0  0
   -0.1269   15.2011   -2.5609 H   0  0  0  0  0  0  0  0  0  0  0  0
    2.2726   14.3000   -4.1858 H   0  0  0  0  0  0  0  0  0  0  0  0
   -0.5911   14.7426   -5.1060 H   0  0  0  0  0  0  0  0  0  0  0  0
    0.6737   16.0599   -5.0156 H   0  0  0  0  0  0  0  0  0  0  0  0
    2.0857   14.3908   -6.4580 H   0  0  0  0  0  0  0  0  0  0  0  0
    0.4558   13.7173   -6.8786 H   0  0  0  0  0  0  0  0  0  0  0  0
    0.4509   16.3841   -6.7384 H   0  0  0  0  0  0  0  0  0  0  0  0
    3.2981   14.6910   -8.0637 H   0  0  0  0  0  0  0  0  0  0  0  0
    2.5243   14.1516   -9.5925 H   0  0  0  0  0  0  0  0  0  0  0  0
    3.6140   15.5797   -9.5925 H   0  0  0  0  0  0  0  0  0  0  0  0
    1.7371   18.0456   -8.5892 H   0  0  0  0  0  0  0  0  0  0  0  0
    2.6204   17.3663   -9.9981 H   0  0  0  0  0  0  0  0  0  0  0  0
    0.8246   17.4060   -9.9981 H   0  0  0  0  0  0  0  0  0  0  0  0
   -0.1093   12.8455   -4.6380 H   0  0  0  0  0  0  0  0  0  0  0  0
    1.7847   11.5526   -5.4027 H   0  0  0  0  0  0  0  0  0  0  0  0
    2.8577   12.2536   -4.1722 H   0  0  0  0  0  0  0  0  0  0  0  0
    1.7211    9.6328   -4.0863 H   0  0  0  0  0  0  0  0  0  0  0  0
    2.4571   10.4353   -2.7017 H   0  0  0  0  0  0  0  0  0  0  0  0
   -1.6258    9.8165   -3.4996 H   0  0  0  0  0  0  0  0  0  0  0  0
   -0.9992   11.1020   -4.5866 H   0  0  0  0  0  0  0  0  0  0  0  0
   -0.2370    9.4754   -4.5866 H   0  0  0  0  0  0  0  0  0  0  0  0
    0.8640   10.2683   -0.8834 H   0  0  0  0  0  0  0  0  0  0  0  0
    0.8427    8.1637   -2.3704 H   0  0  0  0  0  0  0  0  0  0  0  0
    0.4128    8.0716   -0.5829 H   0  0  0  0  0  0  0  0  0  0  0  0
   -1.0913    6.6557   -2.2180 H   0  0  0  0  0  0  0  0  0  0  0  0
   -2.8611   10.2824   -2.1709 H   0  0  0  0  0  0  0  0  0  0  0  0
   -3.4730    9.0974    0.6075 H   0  0  0  0  0  0  0  0  0  0  0  0
   -3.9788   10.7287   -0.0189 H   0  0  0  0  0  0  0  0  0  0  0  0
   -5.8307    9.0889   -0.0762 H   0  0  0  0  0  0  0  0  0  0  0  0
   -5.3616    9.6812   -1.7179 H   0  0  0  0  0  0  0  0  0  0  0  0
   -5.7329    7.3125   -1.8292 H   0  0  0  0  0  0  0  0  0  0  0  0
   -5.2600    6.1650   -0.1050 H   0  0  0  0  0  0  0  0  0  0  0  0
   -4.6771    9.0383   -3.5000 H   0  0  0  0  0  0  0  0  0  0  0  0
   -3.1768    8.4061   -4.2591 H   0  0  0  0  0  0  0  0  0  0  0  0
   -4.6717    7.4103   -4.2591 H   0  0  0  0  0  0  0  0  0  0  0  0
   -3.3599    5.4560   -1.6533 H   0  0  0  0  0  0  0  0  0  0  0  0
   -4.2883    5.6000   -3.1843 H   0  0  0  0  0  0  0  0  0  0  0  0
   -2.5106    5.8575   -3.1843 H   0  0  0  0  0  0  0  0  0  0  0  0
   -1.5462   10.8163    1.3921 H   0  0  0  0  0  0  0  0  0  0  0  0
   -1.5645    9.0687    0.9770 H   0  0  0  0  0  0  0  0  0  0  0  0
   -0.0140    9.9757    0.9770 H   0  0  0  0  0  0  0  0  0  0  0  0
   -2.5872   12.1478   -0.6137 H   0  0  0  0  0  0  0  0  0  0  0  0
   -0.8383   12.3692   -0.0405 H   0  0  0  0  0  0  0  0  0  0  0  0
   -1.8659   12.3909   -2.8915 H   0  0  0  0  0  0  0  0  0  0  0  0
   -1.1475   13.7495   -1.9407 H   0  0  0  0  0  0  0  0  0  0  0  0
    0.8638   12.5291   -0.4773 H   0  0  0  0  0  0  0  0  0  0  0  0
    2.2263   12.1709   -1.5916 H   0  0  0  0  0  0  0  0  0  0  0  0
    1.4707   13.8005   -1.5916 H   0  0  0  0  0  0  0  0  0  0  0  0
  1  2  1  0
  2  3  1  0
  3  4  1  0
  4  5  1  0
  5  6  1  0
  6  7  1  0
  7  8  1  0
  7  9  1  0
  2 10  1  0
 10 11  1  0
 11 12  1  0
 12 13  1  0
 13 14  1  6
 13 15  1  0
 15 16  1  0
 16 17  1  0
 17 18  2  0
 18 19  1  0
 19 20  1  0
 20 21  1  0
 21 22  1  0
 22 23  1  0
 22 24  1  0
 24 25  1  0
 24 26  1  0
 19 27  1  0
 27 28  1  1
 27 29  1  0
 29 30  1  0
 30 31  1  0
 31 32  1  1
  7  5  1  0
 31 10  1  0
 31 13  1  0
 27 15  1  0
 24 18  1  0
  1 33  1  0
  1 34  1  0
  1 35  1  0
  2 36  1  6
  3 37  1  0
  3 38  1  0
  4 39  1  0
  4 40  1  0
  5 41  1  1
  8 42  1  0
  8 43  1  0
  8 44  1  0
  9 45  1  0
  9 46  1  0
  9 47  1  0
 10 48  1  6
 11 49  1  0
 11 50  1  0
 12 51  1  0
 12 52  1  0
 14 53  1  0
 14 54  1  0
 14 55  1  0
 15 56  1  1
 16 57  1  0
 16 58  1  0
 17 59  1  0
 19 60  1  6
 20 61  1  0
 20 62  1  0
 21 63  1  0
 21 64  1  0
 22 65  1  6
 23 66  1  0
 25 67  1  0
 25 68  1  0
 25 69  1  0
 26 70  1  0
 26 71  1  0
 26 72  1  0
 28 73  1  0
 28 74  1  0
 28 75  1  0
 29 76  1  0
 29 77  1  0
 30 78  1  0
 30 79  1  0
 32 80  1  0
 32 81  1  0
 32 82  1  0
M  END
>  <meeko>  (15) 
{"is_sidechain": [false], "intermolecular_energy": 2.731, "internal_energy": -0.839}

$$$$
EPH_relaxed_0001_pdb2pqr_Repair_268_r2_0001_out
     RDKit          3D

 82 86  0  0  0  0  0  0  0  0999 V2000
    2.6950   18.8490   -1.2830 C   0  0  0  0  0  0  0  0  0  0  0  0
    2.3390   17.7860   -2.3260 C   0  0  2  0  0  0  0  0  0  0  0  0
    0.8830   17.9180   -2.8160 C   0  0  0  0  0  0  0  0  0  0  0  0
    0.2150   19.2360   -2.4140 C   0  0  0  0  0  0  0  0  0  0  0  0
   -1.0530   19.0040   -1.6500 C   0  0  2  0  0  0  0  0  0  0  0  0
   -1.7920   20.1940   -1.3410 O   0  0  0  0  0  0  0  0  0  0  0  0
   -1.2650   19.4650   -0.2200 C   0  0  0  0  0  0  0  0  0  0  0  0
   -0.1950   20.1950    0.5310 C   0  0  0  0  0  0  0  0  0  0  0  0
   -2.3140   18.7850    0.6030 C   0  0  0  0  0  0  0  0  0  0  0  0
    2.5710   16.3940   -1.7500 C   0  0  1  0  0  0  0  0  0  0  0  0
    3.4470   16.4160   -0.4690 C   0  0  0  0  0  0  0  0  0  0  0  0
    2.9180   15.2890    0.4540 C   0  0  0  0  0  0  0  0  0  0  0  0
    1.9860   14.4490   -0.4500 C   0  0  1  0  0  0  0  0  0  0  0  0
    2.9430   13.5140   -1.2540 C   0  0  0  0  0  0  0  0  0  0  0  0
    0.8640   13.6390    0.2770 C   0  0  2  0  0  0  0  0  0  0  0  0
    1.3650   12.5610    1.2540 C   0  0  0  0  0  0  0  0  0  0  0  0
    1.5680   11.2070    0.6590 C   0  0  0  0  0  0  0  0  0  0  0  0
    1.0910   10.7950   -0.5300 C   0  0  0  0  0  0  0  0  0  0  0  0
    0.1770   11.6990   -1.3670 C   0  0  1  0  0  0  0  0  0  0  0  0
   -1.0380   10.8780   -1.8760 C   0  0  0  0  0  0  0  0  0  0  0  0
   -0.6200    9.6170   -2.6240 C   0  0  0  0  0  0  0  0  0  0  0  0
    0.2390    8.7170   -1.7400 C   0  0  2  0  0  0  0  0  0  0  0  0
   -0.5680    8.2180   -0.6680 O   0  0  0  0  0  0  0  0  0  0  0  0
    1.4880    9.4380   -1.1610 C   0  0  0  0  0  0  0  0  0  0  0  0
    2.5050    9.7100   -2.2980 C   0  0  0  0  0  0  0  0  0  0  0  0
    2.1890    8.4630   -0.1760 C   0  0  0  0  0  0  0  0  0  0  0  0
   -0.2540   13.0700   -0.6880 C   0  0  1  0  0  0  0  0  0  0  0  0
   -1.5280   12.8540    0.1840 C   0  0  0  0  0  0  0  0  0  0  0  0
   -0.6530   14.0970   -1.8130 C   0  0  0  0  0  0  0  0  0  0  0  0
    0.4820   14.9520   -2.4080 C   0  0  0  0  0  0  0  0  0  0  0  0
    1.3230   15.5930   -1.3000 C   0  0  2  0  0  0  0  0  0  0  0  0
    0.3920   16.5570   -0.4890 C   0  0  0  0  0  0  0  0  0  0  0  0
    2.5559   18.4337   -0.2740 H   0  0  0  0  0  0  0  0  0  0  0  0
    3.7441   19.1533   -1.4129 H   0  0  0  0  0  0  0  0  0  0  0  0
    2.0408   19.7237   -1.4129 H   0  0  0  0  0  0  0  0  0  0  0  0
    2.9950   17.9424   -3.1950 H   0  0  0  0  0  0  0  0  0  0  0  0
    0.8783   17.8470   -3.9137 H   0  0  0  0  0  0  0  0  0  0  0  0
    0.3093   17.1088   -2.3404 H   0  0  0  0  0  0  0  0  0  0  0  0
    0.9104   19.8107   -1.7846 H   0  0  0  0  0  0  0  0  0  0  0  0
   -0.0339   19.7884   -3.3321 H   0  0  0  0  0  0  0  0  0  0  0  0
   -1.1977   18.0298   -2.1400 H   0  0  0  0  0  0  0  0  0  0  0  0
   -0.3627   20.0806    1.6121 H   0  0  0  0  0  0  0  0  0  0  0  0
    0.7881   19.7784    0.2663 H   0  0  0  0  0  0  0  0  0  0  0  0
   -0.2243   21.2623    0.2663 H   0  0  0  0  0  0  0  0  0  0  0  0
   -2.0925   18.9286    1.6708 H   0  0  0  0  0  0  0  0  0  0  0  0
   -3.2988   19.2170    0.3715 H   0  0  0  0  0  0  0  0  0  0  0  0
   -2.3217   17.7097    0.3715 H   0  0  0  0  0  0  0  0  0  0  0  0
    3.0353   15.9091   -2.6214 H   0  0  0  0  0  0  0  0  0  0  0  0
    4.5002   16.2311   -0.7271 H   0  0  0  0  0  0  0  0  0  0  0  0
    3.3914   17.3944    0.0307 H   0  0  0  0  0  0  0  0  0  0  0  0
    3.7486   14.6750    0.8323 H   0  0  0  0  0  0  0  0  0  0  0  0
    2.3961   15.6845    1.3379 H   0  0  0  0  0  0  0  0  0  0  0  0
    3.5499   12.9211   -0.5539 H   0  0  0  0  0  0  0  0  0  0  0  0
    2.3491   12.8386   -1.8873 H   0  0  0  0  0  0  0  0  0  0  0  0
    3.6044   14.1234   -1.8873 H   0  0  0  0  0  0  0  0  0  0  0  0
    0.3857   14.4081    0.9013 H   0  0  0  0  0  0  0  0  0  0  0  0
    2.3267   12.8980    1.6683 H   0  0  0  0  0  0  0  0  0  0  0  0
    0.5757   12.4457    2.0114 H   0  0  0  0  0  0  0  0  0  0  0  0
    2.1578   10.4845    1.2422 H   0  0  0  0  0  0  0  0  0  0  0  0
    0.7831   12.0373   -2.2203 H   0  0  0  0  0  0  0  0  0  0  0  0
   -1.6540   10.5876   -1.0122 H   0  0  0  0  0  0  0  0  0  0  0  0
   -1.5986   11.5123   -2.5784 H   0  0  0  0  0  0  0  0  0  0  0  0
   -1.5208    9.0656   -2.9313 H   0  0  0  0  0  0  0  0  0  0  0  0
   -0.0295    9.9108   -3.5043 H   0  0  0  0  0  0  0  0  0  0  0  0
    0.6143    7.8973   -2.3703 H   0  0  0  0  0  0  0  0  0  0  0  0
   -0.5310    8.8680    0.0540 H   0  0  0  0  0  0  0  0  0  0  0  0
    3.4808    9.9710   -1.8624 H   0  0  0  0  0  0  0  0  0  0  0  0
    2.6101    8.8084   -2.9193 H   0  0  0  0  0  0  0  0  0  0  0  0
    2.1460   10.5437   -2.9193 H   0  0  0  0  0  0  0  0  0  0  0  0
    1.9705    8.7668    0.8584 H   0  0  0  0  0  0  0  0  0  0  0  0
    1.8172    7.4415   -0.3444 H   0  0  0  0  0  0  0  0  0  0  0  0
    3.2757    8.4901   -0.3444 H   0  0  0  0  0  0  0  0  0  0  0  0
   -1.2557   12.9002    1.2488 H   0  0  0  0  0  0  0  0  0  0  0  0
   -2.2638   13.6402   -0.0407 H   0  0  0  0  0  0  0  0  0  0  0  0
   -1.9635   11.8692   -0.0407 H   0  0  0  0  0  0  0  0  0  0  0  0
   -1.1077   13.5277   -2.6371 H   0  0  0  0  0  0  0  0  0  0  0  0
   -1.3264   14.8147   -1.3216 H   0  0  0  0  0  0  0  0  0  0  0  0
    1.1287   14.3120   -3.0262 H   0  0  0  0  0  0  0  0  0  0  0  0
    0.0364   15.7518   -3.0178 H   0  0  0  0  0  0  0  0  0  0  0  0
    0.5471   16.3964    0.5881 H   0  0  0  0  0  0  0  0  0  0  0  0
    0.6336   17.5997   -0.7428 H   0  0  0  0  0  0  0  0  0  0  0  0
   -0.6585   16.3518   -0.7428 H   0  0  0  0  0  0  0  0  0  0  0  0
  1  2  1  0
  2  3  1  0
  3  4  1  0
  4  5  1  0
  5  6  1  0
  6  7  1  0
  7  8  1  0
  7  9  1  0
  2 10  1  0
 10 11  1  0
 11 12  1  0
 12 13  1  0
 13 14  1  6
 13 15  1  0
 15 16  1  0
 16 17  1  0
 17 18  2  0
 18 19  1  0
 19 20  1  0
 20 21  1  0
 21 22  1  0
 22 23  1  0
 22 24  1  0
 24 25  1  0
 24 26  1  0
 19 27  1  0
 27 28  1  1
 27 29  1  0
 29 30  1  0
 30 31  1  0
 31 32  1  1
  7  5  1  0
 31 10  1  0
 31 13  1  0
 27 15  1  0
 24 18  1  0
  1 33  1  0
  1 34  1  0
  1 35  1  0
  2 36  1  6
  3 37  1  0
  3 38  1  0
  4 39  1  0
  4 40  1  0
  5 41  1  1
  8 42  1  0
  8 43  1  0
  8 44  1  0
  9 45  1  0
  9 46  1  0
  9 47  1  0
 10 48  1  6
 11 49  1  0
 11 50  1  0
 12 51  1  0
 12 52  1  0
 14 53  1  0
 14 54  1  0
 14 55  1  0
 15 56  1  1
 16 57  1  0
 16 58  1  0
 17 59  1  0
 19 60  1  6
 20 61  1  0
 20 62  1  0
 21 63  1  0
 21 64  1  0
 22 65  1  6
 23 66  1  0
 25 67  1  0
 25 68  1  0
 25 69  1  0
 26 70  1  0
 26 71  1  0
 26 72  1  0
 28 73  1  0
 28 74  1  0
 28 75  1  0
 29 76  1  0
 29 77  1  0
 30 78  1  0
 30 79  1  0
 32 80  1  0
 32 81  1  0
 32 82  1  0
M  END
>  <meeko>  (16) 
{"is_sidechain": [false], "intermolecular_energy": 2.731, "internal_energy": -0.839}

$$$$
EPH_relaxed_0001_pdb2pqr_Repair_268_r2_0001_out
     RDKit          3D

 82 86  0  0  0  0  0  0  0  0999 V2000
    3.1130   14.8340   -7.5420 C   0  0  0  0  0  0  0  0  0  0  0  0
    1.5890   14.8650   -7.3960 C   0  0  2  0  0  0  0  0  0  0  0  0
    0.9660   16.1040   -8.0710 C   0  0  0  0  0  0  0  0  0  0  0  0
    1.8900   16.7810   -9.0870 C   0  0  0  0  0  0  0  0  0  0  0  0
    1.5610   16.3750  -10.4910 C   0  0  2  0  0  0  0  0  0  0  0  0
    0.9880   15.0670  -10.6180 O   0  0  0  0  0  0  0  0  0  0  0  0
    2.2750   15.2570  -11.2280 C   0  0  0  0  0  0  0  0  0  0  0  0
    3.3760   14.4760  -10.5820 C   0  0  0  0  0  0  0  0  0  0  0  0
    2.2390   15.2500  -12.7250 C   0  0  0  0  0  0  0  0  0  0  0  0
    1.2080   14.8290   -5.9200 C   0  0  1  0  0  0  0  0  0  0  0  0
   -0.0460   15.6880   -5.6060 C   0  0  0  0  0  0  0  0  0  0  0  0
   -0.8220   14.9520   -4.4840 C   0  0  0  0  0  0  0  0  0  0  0  0
    0.1660   13.8830   -3.9620 C   0  0  1  0  0  0  0  0  0  0  0  0
    1.1060   14.6510   -2.9810 C   0  0  0  0  0  0  0  0  0  0  0  0
   -0.4710   12.6250   -3.2860 C   0  0  2  0  0  0  0  0  0  0  0  0
   -1.2850   12.9110   -2.0120 C   0  0  0  0  0  0  0  0  0  0  0  0
   -0.5120   12.8580   -0.7360 C   0  0  0  0  0  0  0  0  0  0  0  0
    0.7110   12.3170   -0.5840 C   0  0  0  0  0  0  0  0  0  0  0  0
    1.4020   11.5930   -1.7470 C   0  0  1  0  0  0  0  0  0  0  0  0
    1.9890   10.2480   -1.2440 C   0  0  0  0  0  0  0  0  0  0  0  0
    2.9070   10.4240   -0.0390 C   0  0  0  0  0  0  0  0  0  0  0  0
    2.1680   11.0940    1.1160 C   0  0  2  0  0  0  0  0  0  0  0  0
    1.1550   10.2030    1.5940 O   0  0  0  0  0  0  0  0  0  0  0  0
    1.5250   12.4550    0.7260 C   0  0  0  0  0  0  0  0  0  0  0  0
    2.6360   13.5090    0.4980 C   0  0  0  0  0  0  0  0  0  0  0  0
    0.6930   12.9550    1.9370 C   0  0  0  0  0  0  0  0  0  0  0  0
    0.5380   11.4250   -3.0710 C   0  0  1  0  0  0  0  0  0  0  0  0
   -0.3240   10.1290   -2.9820 C   0  0  0  0  0  0  0  0  0  0  0  0
    1.5070   11.2300   -4.2960 C   0  0  0  0  0  0  0  0  0  0  0  0
    2.0070   12.5090   -4.9960 C   0  0  0  0  0  0  0  0  0  0  0  0
    0.8420   13.4510   -5.3140 C   0  0  2  0  0  0  0  0  0  0  0  0
   -0.1090   12.7140   -6.3170 C   0  0  0  0  0  0  0  0  0  0  0  0
    3.5768   14.8246   -6.5446 H   0  0  0  0  0  0  0  0  0  0  0  0
    3.4102   13.9296   -8.0931 H   0  0  0  0  0  0  0  0  0  0  0  0
    3.4468   15.7255   -8.0931 H   0  0  0  0  0  0  0  0  0  0  0  0
    1.1892   13.9758   -7.9053 H   0  0  0  0  0  0  0  0  0  0  0  0
    0.0480   15.7918   -8.5905 H   0  0  0  0  0  0  0  0  0  0  0  0
    0.7692   16.8384   -7.2761 H   0  0  0  0  0  0  0  0  0  0  0  0
    1.7812   17.8719   -8.9965 H   0  0  0  0  0  0  0  0  0  0  0  0
    2.9228   16.4690   -8.8727 H   0  0  0  0  0  0  0  0  0  0  0  0
    1.3413   17.4173  -10.7655 H   0  0  0  0  0  0  0  0  0  0  0  0
    3.2806   14.5437   -9.4882 H   0  0  0  0  0  0  0  0  0  0  0  0
    3.3087   13.4226  -10.8915 H   0  0  0  0  0  0  0  0  0  0  0  0
    4.3480   14.8877  -10.8915 H   0  0  0  0  0  0  0  0  0  0  0  0
    1.2125   15.0504  -13.0662 H   0  0  0  0  0  0  0  0  0  0  0  0
    2.5676   16.2289  -13.1043 H   0  0  0  0  0  0  0  0  0  0  0  0
    2.9105   14.4656  -13.1043 H   0  0  0  0  0  0  0  0  0  0  0  0
    2.1454   15.1977   -5.4780 H   0  0  0  0  0  0  0  0  0  0  0  0
    0.2563   16.6888   -5.2639 H   0  0  0  0  0  0  0  0  0  0  0  0
   -0.6721   15.8154   -6.5014 H   0  0  0  0  0  0  0  0  0  0  0  0
   -1.0983   15.6506   -3.6805 H   0  0  0  0  0  0  0  0  0  0  0  0
   -1.7610   14.5095   -4.8478 H   0  0  0  0  0  0  0  0  0  0  0  0
    0.8220   14.4190   -1.9439 H   0  0  0  0  0  0  0  0  0  0  0  0
    2.1475   14.3421   -3.1538 H   0  0  0  0  0  0  0  0  0  0  0  0
    1.0110   15.7332   -3.1538 H   0  0  0  0  0  0  0  0  0  0  0  0
   -1.2021   12.2962   -4.0392 H   0  0  0  0  0  0  0  0  0  0  0  0
   -1.7191   13.9174   -2.1048 H   0  0  0  0  0  0  0  0  0  0  0  0
   -2.0372   12.1111   -1.9455 H   0  0  0  0  0  0  0  0  0  0  0  0
   -0.9818   13.2985    0.1557 H   0  0  0  0  0  0  0  0  0  0  0  0
    2.2159   12.2554   -2.0769 H   0  0  0  0  0  0  0  0  0  0  0  0
    1.1583    9.5850   -0.9604 H   0  0  0  0  0  0  0  0  0  0  0  0
    2.5888    9.8196   -2.0606 H   0  0  0  0  0  0  0  0  0  0  0  0
    3.2658    9.4368    0.2875 H   0  0  0  0  0  0  0  0  0  0  0  0
    3.7531   11.0629   -0.3323 H   0  0  0  0  0  0  0  0  0  0  0  0
    2.9090   11.3107    1.8996 H   0  0  0  0  0  0  0  0  0  0  0  0
    1.5850    9.3580    1.8100 H   0  0  0  0  0  0  0  0  0  0  0  0
    3.0099   13.8637    1.4698 H   0  0  0  0  0  0  0  0  0  0  0  0
    3.4619   13.0545   -0.0689 H   0  0  0  0  0  0  0  0  0  0  0  0
    2.2256   14.3576   -0.0689 H   0  0  0  0  0  0  0  0  0  0  0  0
    1.1900   12.6563    2.8717 H   0  0  0  0  0  0  0  0  0  0  0  0
    0.6123   14.0514    1.8988 H   0  0  0  0  0  0  0  0  0  0  0  0
   -0.3130   12.5117    1.8988 H   0  0  0  0  0  0  0  0  0  0  0  0
   -0.4939    9.8735   -1.9257 H   0  0  0  0  0  0  0  0  0  0  0  0
   -1.2910   10.2969   -3.4788 H   0  0  0  0  0  0  0  0  0  0  0  0
    0.2047    9.3021   -3.4788 H   0  0  0  0  0  0  0  0  0  0  0  0
    2.3896   10.6796   -3.9381 H   0  0  0  0  0  0  0  0  0  0  0  0
    0.9106   10.7010   -5.0539 H   0  0  0  0  0  0  0  0  0  0  0  0
    2.7180   13.0264   -4.3351 H   0  0  0  0  0  0  0  0  0  0  0  0
    2.4955   12.2243   -5.9396 H   0  0  0  0  0  0  0  0  0  0  0  0
   -0.8565   12.1347   -5.7552 H   0  0  0  0  0  0  0  0  0  0  0  0
   -0.6193   13.4548   -6.9501 H   0  0  0  0  0  0  0  0  0  0  0  0
    0.4810   12.0350   -6.9501 H   0  0  0  0  0  0  0  0  0  0  0  0
  1  2  1  0
  2  3  1  0
  3  4  1  0
  4  5  1  0
  5  6  1  0
  6  7  1  0
  7  8  1  0
  7  9  1  0
  2 10  1  0
 10 11  1  0
 11 12  1  0
 12 13  1  0
 13 14  1  1
 13 15  1  0
 15 16  1  0
 16 17  1  0
 17 18  2  0
 18 19  1  0
 19 20  1  0
 20 21  1  0
 21 22  1  0
 22 23  1  0
 22 24  1  0
 24 25  1  0
 24 26  1  0
 19 27  1  0
 27 28  1  1
 27 29  1  0
 29 30  1  0
 30 31  1  0
 31 32  1  6
  7  5  1  0
 31 10  1  0
 31 13  1  0
 27 15  1  0
 24 18  1  0
  1 33  1  0
  1 34  1  0
  1 35  1  0
  2 36  1  6
  3 37  1  0
  3 38  1  0
  4 39  1  0
  4 40  1  0
  5 41  1  6
  8 42  1  0
  8 43  1  0
  8 44  1  0
  9 45  1  0
  9 46  1  0
  9 47  1  0
 10 48  1  1
 11 49  1  0
 11 50  1  0
 12 51  1  0
 12 52  1  0
 14 53  1  0
 14 54  1  0
 14 55  1  0
 15 56  1  6
 16 57  1  0
 16 58  1  0
 17 59  1  0
 19 60  1  6
 20 61  1  0
 20 62  1  0
 21 63  1  0
 21 64  1  0
 22 65  1  1
 23 66  1  0
 25 67  1  0
 25 68  1  0
 25 69  1  0
 26 70  1  0
 26 71  1  0
 26 72  1  0
 28 73  1  0
 28 74  1  0
 28 75  1  0
 29 76  1  0
 29 77  1  0
 30 78  1  0
 30 79  1  0
 32 80  1  0
 32 81  1  0
 32 82  1  0
M  END
>  <meeko>  (17) 
{"is_sidechain": [false], "intermolecular_energy": 2.731, "internal_energy": -0.839}

$$$$
EPH_relaxed_0001_pdb2pqr_Repair_268_r2_0001_out
     RDKit          3D

 82 86  0  0  0  0  0  0  0  0999 V2000
    0.4780    7.9280   -2.3260 C   0  0  0  0  0  0  0  0  0  0  0  0
   -0.9600    8.3000   -1.9540 C   0  0  2  0  0  0  0  0  0  0  0  0
   -1.9830    7.7500   -2.9680 C   0  0  0  0  0  0  0  0  0  0  0  0
   -3.2410    7.1660   -2.3190 C   0  0  0  0  0  0  0  0  0  0  0  0
   -4.2330    6.7100   -3.3450 C   0  0  2  0  0  0  0  0  0  0  0  0
   -5.3950    7.5410   -3.4640 O   0  0  0  0  0  0  0  0  0  0  0  0
   -5.6200    6.2000   -2.9980 C   0  0  0  0  0  0  0  0  0  0  0  0
   -6.0900    6.1200   -1.5790 C   0  0  0  0  0  0  0  0  0  0  0  0
   -6.3300    5.3290   -3.9870 C   0  0  0  0  0  0  0  0  0  0  0  0
   -1.0940    9.8150   -1.8480 C   0  0  1  0  0  0  0  0  0  0  0  0
   -2.5370   10.2630   -1.4920 C   0  0  0  0  0  0  0  0  0  0  0  0
   -2.4060   11.5180   -0.5910 C   0  0  0  0  0  0  0  0  0  0  0  0
   -0.9250   11.9440   -0.7280 C   0  0  1  0  0  0  0  0  0  0  0  0
   -0.8600   12.7440   -2.0670 C   0  0  0  0  0  0  0  0  0  0  0  0
   -0.3280   12.7620    0.4630 C   0  0  2  0  0  0  0  0  0  0  0  0
   -0.9970   14.1240    0.7190 C   0  0  0  0  0  0  0  0  0  0  0  0
   -0.3930   15.2780   -0.0090 C   0  0  0  0  0  0  0  0  0  0  0  0
    0.8120   15.2800   -0.6100 C   0  0  0  0  0  0  0  0  0  0  0  0
    1.7440   14.0660   -0.5080 C   0  0  1  0  0  0  0  0  0  0  0  0
    3.1790   14.5430   -0.1630 C   0  0  0  0  0  0  0  0  0  0  0  0
    3.6960   15.5960   -1.1390 C   0  0  0  0  0  0  0  0  0  0  0  0
    2.7740   16.8120   -1.1680 C   0  0  2  0  0  0  0  0  0  0  0  0
    2.8380   17.4700    0.1000 O   0  0  0  0  0  0  0  0  0  0  0  0
    1.2970   16.4530   -1.4970 C   0  0  0  0  0  0  0  0  0  0  0  0
    1.1850   16.0200   -2.9800 C   0  0  0  0  0  0  0  0  0  0  0  0
    0.4490   17.7450   -1.3560 C   0  0  0  0  0  0  0  0  0  0  0  0
    1.2490   12.8880    0.4370 C   0  0  1  0  0  0  0  0  0  0  0  0
    1.6980   13.1600    1.9050 C   0  0  0  0  0  0  0  0  0  0  0  0
    1.9490   11.5480   -0.0020 C   0  0  0  0  0  0  0  0  0  0  0  0
    1.2480   10.7240   -1.0990 C   0  0  0  0  0  0  0  0  0  0  0  0
   -0.2360   10.5310   -0.7750 C   0  0  2  0  0  0  0  0  0  0  0  0
   -0.3330    9.7100    0.5550 C   0  0  0  0  0  0  0  0  0  0  0  0
    1.0663    7.7758   -1.4091 H   0  0  0  0  0  0  0  0  0  0  0  0
    0.4754    7.0009   -2.9181 H   0  0  0  0  0  0  0  0  0  0  0  0
    0.9253    8.7400   -2.9181 H   0  0  0  0  0  0  0  0  0  0  0  0
   -1.1800    7.8383   -0.9801 H   0  0  0  0  0  0  0  0  0  0  0  0
   -2.2856    8.5703   -3.6355 H   0  0  0  0  0  0  0  0  0  0  0  0
   -1.4897    6.9288   -3.5086 H   0  0  0  0  0  0  0  0  0  0  0  0
   -2.9540    6.3073   -1.6943 H   0  0  0  0  0  0  0  0  0  0  0  0
   -3.7119    7.9543   -1.7133 H   0  0  0  0  0  0  0  0  0  0  0  0
   -3.4302    6.2958   -3.9726 H   0  0  0  0  0  0  0  0  0  0  0  0
   -5.2360    6.2654   -0.9011 H   0  0  0  0  0  0  0  0  0  0  0  0
   -6.8404    6.9033   -1.3966 H   0  0  0  0  0  0  0  0  0  0  0  0
   -6.5390    5.1325   -1.3966 H   0  0  0  0  0  0  0  0  0  0  0  0
   -6.9368    4.5846   -3.4507 H   0  0  0  0  0  0  0  0  0  0  0  0
   -6.9836    5.9487   -4.6185 H   0  0  0  0  0  0  0  0  0  0  0  0
   -5.5913    4.8137   -4.6185 H   0  0  0  0  0  0  0  0  0  0  0  0
   -0.7542   10.1018   -2.8541 H   0  0  0  0  0  0  0  0  0  0  0  0
   -3.0936   10.5106   -2.4079 H   0  0  0  0  0  0  0  0  0  0  0  0
   -3.0835    9.4606   -0.9748 H   0  0  0  0  0  0  0  0  0  0  0  0
   -3.0743   12.3186   -0.9408 H   0  0  0  0  0  0  0  0  0  0  0  0
   -2.6863   11.3132    0.4528 H   0  0  0  0  0  0  0  0  0  0  0  0
   -0.7727   13.8185   -1.8483 H   0  0  0  0  0  0  0  0  0  0  0  0
    0.0144   12.4159   -2.6481 H   0  0  0  0  0  0  0  0  0  0  0  0
   -1.7759   12.5613   -2.6481 H   0  0  0  0  0  0  0  0  0  0  0  0
   -0.5834   12.1360    1.3307 H   0  0  0  0  0  0  0  0  0  0  0  0
   -2.0520   14.0465    0.4173 H   0  0  0  0  0  0  0  0  0  0  0  0
   -0.8591   14.3341    1.7899 H   0  0  0  0  0  0  0  0  0  0  0  0
   -0.9820   16.2057   -0.0590 H   0  0  0  0  0  0  0  0  0  0  0  0
    1.7359   13.5927   -1.5009 H   0  0  0  0  0  0  0  0  0  0  0  0
    3.1738   14.9730    0.8495 H   0  0  0  0  0  0  0  0  0  0  0  0
    3.8458   13.6706   -0.2289 H   0  0  0  0  0  0  0  0  0  0  0  0
    4.7015   15.9140   -0.8262 H   0  0  0  0  0  0  0  0  0  0  0  0
    3.7280   15.1555   -2.1464 H   0  0  0  0  0  0  0  0  0  0  0  0
    3.1240   17.4720   -1.9754 H   0  0  0  0  0  0  0  0  0  0  0  0
    2.1650   17.0670    0.6750 H   0  0  0  0  0  0  0  0  0  0  0  0
    0.9098   14.9562   -3.0316 H   0  0  0  0  0  0  0  0  0  0  0  0
    0.4133   16.6231   -3.4808 H   0  0  0  0  0  0  0  0  0  0  0  0
    2.1523   16.1732   -3.4808 H   0  0  0  0  0  0  0  0  0  0  0  0
    0.3003   17.9715   -0.2899 H   0  0  0  0  0  0  0  0  0  0  0  0
    0.9736   18.5825   -1.8391 H   0  0  0  0  0  0  0  0  0  0  0  0
   -0.5281   17.5968   -1.8391 H   0  0  0  0  0  0  0  0  0  0  0  0
    0.9684   12.7180    2.5995 H   0  0  0  0  0  0  0  0  0  0  0  0
    2.6866   12.7088    2.0757 H   0  0  0  0  0  0  0  0  0  0  0  0
    1.7559   14.2451    2.0757 H   0  0  0  0  0  0  0  0  0  0  0  0
    2.9544   11.8026   -0.3686 H   0  0  0  0  0  0  0  0  0  0  0  0
    1.9322   10.9084    0.8928 H   0  0  0  0  0  0  0  0  0  0  0  0
    1.3410   11.2512   -2.0599 H   0  0  0  0  0  0  0  0  0  0  0  0
    1.7265    9.7351   -1.1547 H   0  0  0  0  0  0  0  0  0  0  0  0
   -0.2524   10.3925    1.4139 H   0  0  0  0  0  0  0  0  0  0  0  0
   -1.2993    9.1858    0.5927 H   0  0  0  0  0  0  0  0  0  0  0  0
    0.4846    8.9750    0.5927 H   0  0  0  0  0  0  0  0  0  0  0  0
  1  2  1  0
  2  3  1  0
  3  4  1  0
  4  5  1  0
  5  6  1  0
  6  7  1  0
  7  8  1  0
  7  9  1  0
  2 10  1  0
 10 11  1  0
 11 12  1  0
 12 13  1  0
 13 14  1  6
 13 15  1  0
 15 16  1  0
 16 17  1  0
 17 18  2  0
 18 19  1  0
 19 20  1  0
 20 21  1  0
 21 22  1  0
 22 23  1  0
 22 24  1  0
 24 25  1  0
 24 26  1  0
 19 27  1  0
 27 28  1  1
 27 29  1  0
 29 30  1  0
 30 31  1  0
 31 32  1  1
  7  5  1  0
 31 10  1  0
 31 13  1  0
 27 15  1  0
 24 18  1  0
  1 33  1  0
  1 34  1  0
  1 35  1  0
  2 36  1  1
  3 37  1  0
  3 38  1  0
  4 39  1  0
  4 40  1  0
  5 41  1  6
  8 42  1  0
  8 43  1  0
  8 44  1  0
  9 45  1  0
  9 46  1  0
  9 47  1  0
 10 48  1  6
 11 49  1  0
 11 50  1  0
 12 51  1  0
 12 52  1  0
 14 53  1  0
 14 54  1  0
 14 55  1  0
 15 56  1  1
 16 57  1  0
 16 58  1  0
 17 59  1  0
 19 60  1  6
 20 61  1  0
 20 62  1  0
 21 63  1  0
 21 64  1  0
 22 65  1  6
 23 66  1  0
 25 67  1  0
 25 68  1  0
 25 69  1  0
 26 70  1  0
 26 71  1  0
 26 72  1  0
 28 73  1  0
 28 74  1  0
 28 75  1  0
 29 76  1  0
 29 77  1  0
 30 78  1  0
 30 79  1  0
 32 80  1  0
 32 81  1  0
 32 82  1  0
M  END
>  <meeko>  (18) 
{"is_sidechain": [false], "intermolecular_energy": 2.731, "internal_energy": -0.839}

$$$$
