EPH_relaxed_0001_pdb2pqr_Repair_379_r2_0001_out
     RDKit          3D

 82 86  0  0  0  0  0  0  0  0999 V2000
    2.0780   19.5380   -0.6730 C   0  0  0  0  0  0  0  0  0  0  0  0
    2.4430   18.3390    0.2070 C   0  0  2  0  0  0  0  0  0  0  0  0
    3.8860   17.8540   -0.0410 C   0  0  0  0  0  0  0  0  0  0  0  0
    4.8990   18.3920    0.9730 C   0  0  0  0  0  0  0  0  0  0  0  0
    4.2300   18.8510    2.2330 C   0  0  2  0  0  0  0  0  0  0  0  0
    4.5460   20.1940    2.6230 O   0  0  0  0  0  0  0  0  0  0  0  0
    4.9820   19.1560    3.5160 C   0  0  0  0  0  0  0  0  0  0  0  0
    6.4690   19.0130    3.6020 C   0  0  0  0  0  0  0  0  0  0  0  0
    4.2320   19.1200    4.8110 C   0  0  0  0  0  0  0  0  0  0  0  0
    1.4620   17.1980   -0.0370 C   0  0  1  0  0  0  0  0  0  0  0  0
    0.1600   17.6700   -0.7380 C   0  0  0  0  0  0  0  0  0  0  0  0
   -0.2850   16.5190   -1.6760 C   0  0  0  0  0  0  0  0  0  0  0  0
    0.5740   15.3080   -1.2420 C   0  0  1  0  0  0  0  0  0  0  0  0
   -0.1500   14.7320    0.0150 C   0  0  0  0  0  0  0  0  0  0  0  0
    0.8130   14.2060   -2.3260 C   0  0  2  0  0  0  0  0  0  0  0  0
   -0.4570   13.4950   -2.8240 C   0  0  0  0  0  0  0  0  0  0  0  0
   -0.8400   12.2680   -2.0640 C   0  0  0  0  0  0  0  0  0  0  0  0
   -0.0440   11.5960   -1.2110 C   0  0  0  0  0  0  0  0  0  0  0  0
    1.4210   12.0050   -1.0130 C   0  0  1  0  0  0  0  0  0  0  0  0
    2.3220   10.7430   -1.0620 C   0  0  0  0  0  0  0  0  0  0  0  0
    1.8770    9.6680   -0.0740 C   0  0  0  0  0  0  0  0  0  0  0  0
    0.4340    9.2460   -0.3400 C   0  0  2  0  0  0  0  0  0  0  0  0
    0.3740    8.5830   -1.6070 O   0  0  0  0  0  0  0  0  0  0  0  0
   -0.5650   10.4370   -0.3260 C   0  0  0  0  0  0  0  0  0  0  0  0
   -0.7240   10.9640    1.1220 C   0  0  0  0  0  0  0  0  0  0  0  0
   -1.9580    9.8960   -0.7470 C   0  0  0  0  0  0  0  0  0  0  0  0
    1.9490   13.1690   -1.9560 C   0  0  1  0  0  0  0  0  0  0  0  0
    2.4620   12.5720   -3.3030 C   0  0  0  0  0  0  0  0  0  0  0  0
    3.1910   13.8590   -1.2760 C   0  0  0  0  0  0  0  0  0  0  0  0
    2.8960   15.0190   -0.3070 C   0  0  0  0  0  0  0  0  0  0  0  0
    1.9360   16.0320   -0.9390 C   0  0  2  0  0  0  0  0  0  0  0  0
    2.6460   16.6440   -2.1940 C   0  0  0  0  0  0  0  0  0  0  0  0
    1.8171   20.3952   -0.0349 H   0  0  0  0  0  0  0  0  0  0  0  0
    2.9366   19.8016   -1.3081 H   0  0  0  0  0  0  0  0  0  0  0  0
    1.2182   19.2785   -1.3081 H   0  0  0  0  0  0  0  0  0  0  0  0
    2.3802   18.6667    1.2552 H   0  0  0  0  0  0  0  0  0  0  0  0
    3.8962   16.7551    0.0076 H   0  0  0  0  0  0  0  0  0  0  0  0
    4.1873   18.2333   -1.0286 H   0  0  0  0  0  0  0  0  0  0  0  0
    5.6150   17.5942    1.2196 H   0  0  0  0  0  0  0  0  0  0  0  0
    5.4110   19.2549    0.5221 H   0  0  0  0  0  0  0  0  0  0  0  0
    3.3516   18.2227    2.0241 H   0  0  0  0  0  0  0  0  0  0  0  0
    6.7740   18.9837    4.6585 H   0  0  0  0  0  0  0  0  0  0  0  0
    6.7771   18.0811    3.1054 H   0  0  0  0  0  0  0  0  0  0  0  0
    6.9490   19.8691    3.1054 H   0  0  0  0  0  0  0  0  0  0  0  0
    4.9444   19.1542    5.6484 H   0  0  0  0  0  0  0  0  0  0  0  0
    3.5572   19.9868    4.8681 H   0  0  0  0  0  0  0  0  0  0  0  0
    3.6433   18.1926    4.8681 H   0  0  0  0  0  0  0  0  0  0  0  0
    1.3310   16.8439    0.9962 H   0  0  0  0  0  0  0  0  0  0  0  0
   -0.6208   17.8726    0.0098 H   0  0  0  0  0  0  0  0  0  0  0  0
    0.3301   18.5977   -1.3041 H   0  0  0  0  0  0  0  0  0  0  0  0
   -1.3555   16.3028   -1.5446 H   0  0  0  0  0  0  0  0  0  0  0  0
   -0.1468   16.7693   -2.7382 H   0  0  0  0  0  0  0  0  0  0  0  0
    0.3335   15.1167    0.9251 H   0  0  0  0  0  0  0  0  0  0  0  0
   -1.2061   15.0395    0.0029 H   0  0  0  0  0  0  0  0  0  0  0  0
   -0.0877   13.6338    0.0029 H   0  0  0  0  0  0  0  0  0  0  0  0
    1.1820   14.7916   -3.1809 H   0  0  0  0  0  0  0  0  0  0  0  0
   -1.2923   14.2080   -2.7619 H   0  0  0  0  0  0  0  0  0  0  0  0
   -0.2376   13.1621   -3.8492 H   0  0  0  0  0  0  0  0  0  0  0  0
   -1.8585   11.8804   -2.2137 H   0  0  0  0  0  0  0  0  0  0  0  0
    1.4765   12.4644   -0.0151 H   0  0  0  0  0  0  0  0  0  0  0  0
    2.2872   10.3240   -2.0785 H   0  0  0  0  0  0  0  0  0  0  0  0
    3.3416   11.0495   -0.7854 H   0  0  0  0  0  0  0  0  0  0  0  0
    2.5332    8.7911   -0.1764 H   0  0  0  0  0  0  0  0  0  0  0  0
    1.9405   10.0791    0.9443 H   0  0  0  0  0  0  0  0  0  0  0  0
    0.1312    8.5729    0.4757 H   0  0  0  0  0  0  0  0  0  0  0  0
    0.2480    9.2640   -2.2900 H   0  0  0  0  0  0  0  0  0  0  0  0
   -0.4816   10.1607    1.8333 H   0  0  0  0  0  0  0  0  0  0  0  0
   -0.0418   11.8122    1.2805 H   0  0  0  0  0  0  0  0  0  0  0  0
   -1.7615   11.2934    1.2805 H   0  0  0  0  0  0  0  0  0  0  0  0
   -2.5491    9.6664    0.1518 H   0  0  0  0  0  0  0  0  0  0  0  0
   -2.4811   10.6564   -1.3455 H   0  0  0  0  0  0  0  0  0  0  0  0
   -1.8308    8.9819   -1.3455 H   0  0  0  0  0  0  0  0  0  0  0  0
    3.1661   11.7526   -3.0963 H   0  0  0  0  0  0  0  0  0  0  0  0
    1.6096   12.1859   -3.8812 H   0  0  0  0  0  0  0  0  0  0  0  0
    2.9720   13.3566   -3.8812 H   0  0  0  0  0  0  0  0  0  0  0  0
    3.7349   13.0857   -0.7137 H   0  0  0  0  0  0  0  0  0  0  0  0
    3.7577   14.3116   -2.1031 H   0  0  0  0  0  0  0  0  0  0  0  0
    2.4407   14.6152    0.6093 H   0  0  0  0  0  0  0  0  0  0  0  0
    3.8417   15.5304   -0.0745 H   0  0  0  0  0  0  0  0  0  0  0  0
    3.4416   17.3298   -1.8672 H   0  0  0  0  0  0  0  0  0  0  0  0
    3.0839   15.8357   -2.7981 H   0  0  0  0  0  0  0  0  0  0  0  0
    1.9111   17.1963   -2.7981 H   0  0  0  0  0  0  0  0  0  0  0  0
  1  2  1  0
  2  3  1  0
  3  4  1  0
  4  5  1  0
  5  6  1  0
  6  7  1  0
  7  8  1  0
  7  9  1  0
  2 10  1  0
 10 11  1  0
 11 12  1  0
 12 13  1  0
 13 14  1  1
 13 15  1  0
 15 16  1  0
 16 17  1  0
 17 18  2  0
 18 19  1  0
 19 20  1  0
 20 21  1  0
 21 22  1  0
 22 23  1  0
 22 24  1  0
 24 25  1  0
 24 26  1  0
 19 27  1  0
 27 28  1  6
 27 29  1  0
 29 30  1  0
 30 31  1  0
 31 32  1  6
  7  5  1  0
 31 10  1  0
 31 13  1  0
 27 15  1  0
 24 18  1  0
  1 33  1  0
  1 34  1  0
  1 35  1  0
  2 36  1  1
  3 37  1  0
  3 38  1  0
  4 39  1  0
  4 40  1  0
  5 41  1  1
  8 42  1  0
  8 43  1  0
  8 44  1  0
  9 45  1  0
  9 46  1  0
  9 47  1  0
 10 48  1  1
 11 49  1  0
 11 50  1  0
 12 51  1  0
 12 52  1  0
 14 53  1  0
 14 54  1  0
 14 55  1  0
 15 56  1  6
 16 57  1  0
 16 58  1  0
 17 59  1  0
 19 60  1  1
 20 61  1  0
 20 62  1  0
 21 63  1  0
 21 64  1  0
 22 65  1  1
 23 66  1  0
 25 67  1  0
 25 68  1  0
 25 69  1  0
 26 70  1  0
 26 71  1  0
 26 72  1  0
 28 73  1  0
 28 74  1  0
 28 75  1  0
 29 76  1  0
 29 77  1  0
 30 78  1  0
 30 79  1  0
 32 80  1  0
 32 81  1  0
 32 82  1  0
M  END
>  <meeko>  (1) 
{"is_sidechain": [false], "intermolecular_energy": 2.731, "internal_energy": -0.839}

$$$$
EPH_relaxed_0001_pdb2pqr_Repair_379_r2_0001_out
     RDKit          3D

 82 86  0  0  0  0  0  0  0  0999 V2000
    2.4140   18.0610   -2.6290 C   0  0  0  0  0  0  0  0  0  0  0  0
    1.0770   17.7140   -1.9690 C   0  0  2  0  0  0  0  0  0  0  0  0
    1.1500   17.7930   -0.4310 C   0  0  0  0  0  0  0  0  0  0  0  0
    0.7670   19.1640    0.1330 C   0  0  0  0  0  0  0  0  0  0  0  0
   -0.6860   19.2280    0.4970 C   0  0  2  0  0  0  0  0  0  0  0  0
   -1.5220   18.3060   -0.2150 O   0  0  0  0  0  0  0  0  0  0  0  0
   -1.7670   19.7010   -0.4570 C   0  0  0  0  0  0  0  0  0  0  0  0
   -1.4400   20.1440   -1.8490 C   0  0  0  0  0  0  0  0  0  0  0  0
   -3.0590   20.1940    0.1150 C   0  0  0  0  0  0  0  0  0  0  0  0
    0.6320   16.3200   -2.3980 C   0  0  1  0  0  0  0  0  0  0  0  0
    0.7020   16.1180   -3.9350 C   0  0  0  0  0  0  0  0  0  0  0  0
    1.1090   14.6410   -4.1730 C   0  0  0  0  0  0  0  0  0  0  0  0
    0.9370   13.9620   -2.7950 C   0  0  1  0  0  0  0  0  0  0  0  0
   -0.5890   13.6540   -2.6870 C   0  0  0  0  0  0  0  0  0  0  0  0
    1.8020   12.6840   -2.5410 C   0  0  2  0  0  0  0  0  0  0  0  0
    1.5130   11.5020   -3.4820 C   0  0  0  0  0  0  0  0  0  0  0  0
    0.4690   10.5480   -3.0050 C   0  0  0  0  0  0  0  0  0  0  0  0
   -0.0060   10.4720   -1.7480 C   0  0  0  0  0  0  0  0  0  0  0  0
    0.5840   11.3410   -0.6300 C   0  0  1  0  0  0  0  0  0  0  0  0
    0.8410   10.4660    0.6250 C   0  0  0  0  0  0  0  0  0  0  0  0
   -0.4040    9.7050    1.0730 C   0  0  0  0  0  0  0  0  0  0  0  0
   -0.9270    8.8090   -0.0470 C   0  0  2  0  0  0  0  0  0  0  0  0
    0.0290    7.7730   -0.2920 O   0  0  0  0  0  0  0  0  0  0  0  0
   -1.2120    9.5790   -1.3660 C   0  0  0  0  0  0  0  0  0  0  0  0
   -2.4510   10.4900   -1.1790 C   0  0  0  0  0  0  0  0  0  0  0  0
   -1.5980    8.5390   -2.4530 C   0  0  0  0  0  0  0  0  0  0  0  0
    1.8460   12.2210   -1.0280 C   0  0  1  0  0  0  0  0  0  0  0  0
    3.1530   11.3870   -0.8560 C   0  0  0  0  0  0  0  0  0  0  0  0
    1.9610   13.4360   -0.0330 C   0  0  0  0  0  0  0  0  0  0  0  0
    1.1770   14.7110   -0.4010 C   0  0  0  0  0  0  0  0  0  0  0  0
    1.4410   15.1160   -1.8540 C   0  0  2  0  0  0  0  0  0  0  0  0
    2.9650   15.4530   -1.9880 C   0  0  0  0  0  0  0  0  0  0  0  0
    3.1670   18.2564   -1.8513 H   0  0  0  0  0  0  0  0  0  0  0  0
    2.7435   17.2186   -3.2550 H   0  0  0  0  0  0  0  0  0  0  0  0
    2.2922   18.9573   -3.2550 H   0  0  0  0  0  0  0  0  0  0  0  0
    0.3402   18.4594   -2.3030 H   0  0  0  0  0  0  0  0  0  0  0  0
    0.4653   17.0412   -0.0116 H   0  0  0  0  0  0  0  0  0  0  0  0
    2.1973   17.6101   -0.1487 H   0  0  0  0  0  0  0  0  0  0  0  0
    1.3688   19.3601    1.0327 H   0  0  0  0  0  0  0  0  0  0  0  0
    0.9596   19.9197   -0.6427 H   0  0  0  0  0  0  0  0  0  0  0  0
   -0.4394   19.5107    1.5310 H   0  0  0  0  0  0  0  0  0  0  0  0
   -0.7872   21.0284   -1.8085 H   0  0  0  0  0  0  0  0  0  0  0  0
   -0.9237   19.3312   -2.3807 H   0  0  0  0  0  0  0  0  0  0  0  0
   -2.3689   20.3980   -2.3807 H   0  0  0  0  0  0  0  0  0  0  0  0
   -3.0052   20.1735    1.2135 H   0  0  0  0  0  0  0  0  0  0  0  0
   -3.2405   21.2246   -0.2240 H   0  0  0  0  0  0  0  0  0  0  0  0
   -3.8809   19.5463   -0.2240 H   0  0  0  0  0  0  0  0  0  0  0  0
   -0.3834   16.3119   -1.9749 H   0  0  0  0  0  0  0  0  0  0  0  0
   -0.2799   16.3183   -4.3887 H   0  0  0  0  0  0  0  0  0  0  0  0
    1.4281   16.8067   -4.3916 H   0  0  0  0  0  0  0  0  0  0  0  0
    0.4523   14.1730   -4.9211 H   0  0  0  0  0  0  0  0  0  0  0  0
    2.1350   14.5481   -4.5586 H   0  0  0  0  0  0  0  0  0  0  0  0
   -0.8772   13.5958   -1.6270 H   0  0  0  0  0  0  0  0  0  0  0  0
   -1.1604   14.4549   -3.1789 H   0  0  0  0  0  0  0  0  0  0  0  0
   -0.8050   12.6941   -3.1789 H   0  0  0  0  0  0  0  0  0  0  0  0
    2.8139   13.0299   -2.7988 H   0  0  0  0  0  0  0  0  0  0  0  0
    1.1842   11.9100   -4.4492 H   0  0  0  0  0  0  0  0  0  0  0  0
    2.4477   10.9252   -3.5421 H   0  0  0  0  0  0  0  0  0  0  0  0
    0.0523    9.8474   -3.7436 H   0  0  0  0  0  0  0  0  0  0  0  0
   -0.1763   12.1034   -0.4049 H   0  0  0  0  0  0  0  0  0  0  0  0
    1.6335    9.7396    0.3921 H   0  0  0  0  0  0  0  0  0  0  0  0
    1.1353   11.1371    1.4454 H   0  0  0  0  0  0  0  0  0  0  0  0
   -0.1516    9.0825    1.9441 H   0  0  0  0  0  0  0  0  0  0  0  0
   -1.1859   10.4331    1.3348 H   0  0  0  0  0  0  0  0  0  0  0  0
   -1.8889    8.3922    0.2862 H   0  0  0  0  0  0  0  0  0  0  0  0
   -0.4120    6.9210   -0.1290 H   0  0  0  0  0  0  0  0  0  0  0  0
   -2.6434   10.6315   -0.1052 H   0  0  0  0  0  0  0  0  0  0  0  0
   -2.2626   11.4663   -1.6495 H   0  0  0  0  0  0  0  0  0  0  0  0
   -3.3267   10.0191   -1.6495 H   0  0  0  0  0  0  0  0  0  0  0  0
   -1.9417    7.6130   -1.9689 H   0  0  0  0  0  0  0  0  0  0  0  0
   -2.4049    8.9462   -3.0800 H   0  0  0  0  0  0  0  0  0  0  0  0
   -0.7208    8.3212   -3.0800 H   0  0  0  0  0  0  0  0  0  0  0  0
    3.3638   11.2525    0.2152 H   0  0  0  0  0  0  0  0  0  0  0  0
    3.0253   10.4031   -1.3310 H   0  0  0  0  0  0  0  0  0  0  0  0
    3.9915   11.9173   -1.3310 H   0  0  0  0  0  0  0  0  0  0  0  0
    1.6022   13.0966    0.9499 H   0  0  0  0  0  0  0  0  0  0  0  0
    3.0203   13.7312   -0.0597 H   0  0  0  0  0  0  0  0  0  0  0  0
    0.1013   14.5225   -0.2697 H   0  0  0  0  0  0  0  0  0  0  0  0
    1.5076   15.5284    0.2567 H   0  0  0  0  0  0  0  0  0  0  0  0
    3.4083   15.5510   -0.9861 H   0  0  0  0  0  0  0  0  0  0  0  0
    3.4723   14.6453   -2.5360 H   0  0  0  0  0  0  0  0  0  0  0  0
    3.0845   16.3993   -2.5360 H   0  0  0  0  0  0  0  0  0  0  0  0
  1  2  1  0
  2  3  1  0
  3  4  1  0
  4  5  1  0
  5  6  1  0
  6  7  1  0
  7  8  1  0
  7  9  1  0
  2 10  1  0
 10 11  1  0
 11 12  1  0
 12 13  1  0
 13 14  1  1
 13 15  1  0
 15 16  1  0
 16 17  1  0
 17 18  2  0
 18 19  1  0
 19 20  1  0
 20 21  1  0
 21 22  1  0
 22 23  1  0
 22 24  1  0
 24 25  1  0
 24 26  1  0
 19 27  1  0
 27 28  1  6
 27 29  1  0
 29 30  1  0
 30 31  1  0
 31 32  1  1
  7  5  1  0
 31 10  1  0
 31 13  1  0
 27 15  1  0
 24 18  1  0
  1 33  1  0
  1 34  1  0
  1 35  1  0
  2 36  1  6
  3 37  1  0
  3 38  1  0
  4 39  1  0
  4 40  1  0
  5 41  1  1
  8 42  1  0
  8 43  1  0
  8 44  1  0
  9 45  1  0
  9 46  1  0
  9 47  1  0
 10 48  1  1
 11 49  1  0
 11 50  1  0
 12 51  1  0
 12 52  1  0
 14 53  1  0
 14 54  1  0
 14 55  1  0
 15 56  1  6
 16 57  1  0
 16 58  1  0
 17 59  1  0
 19 60  1  1
 20 61  1  0
 20 62  1  0
 21 63  1  0
 21 64  1  0
 22 65  1  1
 23 66  1  0
 25 67  1  0
 25 68  1  0
 25 69  1  0
 26 70  1  0
 26 71  1  0
 26 72  1  0
 28 73  1  0
 28 74  1  0
 28 75  1  0
 29 76  1  0
 29 77  1  0
 30 78  1  0
 30 79  1  0
 32 80  1  0
 32 81  1  0
 32 82  1  0
M  END
>  <meeko>  (2) 
{"is_sidechain": [false], "intermolecular_energy": 2.731, "internal_energy": -0.839}

$$$$
EPH_relaxed_0001_pdb2pqr_Repair_379_r2_0001_out
     RDKit          3D

 82 86  0  0  0  0  0  0  0  0999 V2000
    2.1150   18.1130   -2.6400 C   0  0  0  0  0  0  0  0  0  0  0  0
    0.5960   17.9210   -2.6380 C   0  0  2  0  0  0  0  0  0  0  0  0
   -0.0440   18.3610   -1.3060 C   0  0  0  0  0  0  0  0  0  0  0  0
    0.7520   17.9340   -0.0700 C   0  0  0  0  0  0  0  0  0  0  0  0
    1.2770   19.1160    0.6870 C   0  0  2  0  0  0  0  0  0  0  0  0
    2.1590   19.9630   -0.0620 O   0  0  0  0  0  0  0  0  0  0  0  0
    2.7370   19.2850    1.0660 C   0  0  0  0  0  0  0  0  0  0  0  0
    3.7630   18.2590    0.6990 C   0  0  0  0  0  0  0  0  0  0  0  0
    3.0800   20.1940    2.2040 C   0  0  0  0  0  0  0  0  0  0  0  0
    0.2560   16.4620   -2.9220 C   0  0  1  0  0  0  0  0  0  0  0  0
    0.3230   16.1160   -4.4330 C   0  0  0  0  0  0  0  0  0  0  0  0
    0.8430   14.6590   -4.5360 C   0  0  0  0  0  0  0  0  0  0  0  0
    0.7420   14.1060   -3.0950 C   0  0  1  0  0  0  0  0  0  0  0  0
   -0.7540   13.6940   -2.9270 C   0  0  0  0  0  0  0  0  0  0  0  0
    1.7080   12.9310   -2.7360 C   0  0  2  0  0  0  0  0  0  0  0  0
    1.5010   11.6430   -3.5540 C   0  0  0  0  0  0  0  0  0  0  0  0
    0.5420   10.6620   -2.9660 C   0  0  0  0  0  0  0  0  0  0  0  0
    0.0900   10.6730   -1.6980 C   0  0  0  0  0  0  0  0  0  0  0  0
    0.6240   11.6900   -0.6810 C   0  0  1  0  0  0  0  0  0  0  0  0
    0.9640   10.9640    0.6470 C   0  0  0  0  0  0  0  0  0  0  0  0
   -0.2110   10.1570    1.1910 C   0  0  0  0  0  0  0  0  0  0  0  0
   -0.6760    9.1180    0.1730 C   0  0  2  0  0  0  0  0  0  0  0  0
    0.3560    8.1400    0.0100 O   0  0  0  0  0  0  0  0  0  0  0  0
   -1.0370    9.7320   -1.2080 C   0  0  0  0  0  0  0  0  0  0  0  0
   -2.3410   10.5580   -1.0850 C   0  0  0  0  0  0  0  0  0  0  0  0
   -1.3530    8.5640   -2.1810 C   0  0  0  0  0  0  0  0  0  0  0  0
    1.8070   12.6220   -1.1870 C   0  0  1  0  0  0  0  0  0  0  0  0
    3.1770   11.9130   -0.9610 C   0  0  0  0  0  0  0  0  0  0  0  0
    1.8380   13.9340   -0.3170 C   0  0  0  0  0  0  0  0  0  0  0  0
    0.9520   15.1020   -0.7900 C   0  0  0  0  0  0  0  0  0  0  0  0
    1.1650   15.3830   -2.2810 C   0  0  2  0  0  0  0  0  0  0  0  0
    2.6560   15.8220   -2.4770 C   0  0  0  0  0  0  0  0  0  0  0  0
    2.4801   18.1592   -1.6034 H   0  0  0  0  0  0  0  0  0  0  0  0
    2.5907   17.2678   -3.1590 H   0  0  0  0  0  0  0  0  0  0  0  0
    2.3655   19.0500   -3.1590 H   0  0  0  0  0  0  0  0  0  0  0  0
    0.1811   18.5610   -3.4306 H   0  0  0  0  0  0  0  0  0  0  0  0
   -0.1247   19.4580   -1.3052 H   0  0  0  0  0  0  0  0  0  0  0  0
   -1.0252   17.8679   -1.2425 H   0  0  0  0  0  0  0  0  0  0  0  0
    0.0961   17.3495    0.5919 H   0  0  0  0  0  0  0  0  0  0  0  0
    1.6101   17.3332   -0.4056 H   0  0  0  0  0  0  0  0  0  0  0  0
    0.3497   19.1816    1.2750 H   0  0  0  0  0  0  0  0  0  0  0  0
    4.1942   17.8278    1.6145 H   0  0  0  0  0  0  0  0  0  0  0  0
    3.2894   17.4625    0.1064 H   0  0  0  0  0  0  0  0  0  0  0  0
    4.5595   18.7326    0.1064 H   0  0  0  0  0  0  0  0  0  0  0  0
    2.8856   19.6788    3.1562 H   0  0  0  0  0  0  0  0  0  0  0  0
    4.1436   20.4686    2.1462 H   0  0  0  0  0  0  0  0  0  0  0  0
    2.4630   21.1028    2.1462 H   0  0  0  0  0  0  0  0  0  0  0  0
   -0.7506   16.4176   -2.4806 H   0  0  0  0  0  0  0  0  0  0  0  0
   -0.6772   16.1939   -4.8841 H   0  0  0  0  0  0  0  0  0  0  0  0
    0.9869   16.8109   -4.9681 H   0  0  0  0  0  0  0  0  0  0  0  0
    0.2165   14.0707   -5.2225 H   0  0  0  0  0  0  0  0  0  0  0  0
    1.8684   14.6089   -4.9312 H   0  0  0  0  0  0  0  0  0  0  0  0
   -0.9978   13.6269   -1.8565 H   0  0  0  0  0  0  0  0  0  0  0  0
   -1.3977   14.4483   -3.4031 H   0  0  0  0  0  0  0  0  0  0  0  0
   -0.9208   12.7165   -3.4031 H   0  0  0  0  0  0  0  0  0  0  0  0
    2.6863   13.3279   -3.0448 H   0  0  0  0  0  0  0  0  0  0  0  0
    1.1283   11.9283   -4.5488 H   0  0  0  0  0  0  0  0  0  0  0  0
    2.4776   11.1373   -3.5780 H   0  0  0  0  0  0  0  0  0  0  0  0
    0.1732    9.8620   -3.6248 H   0  0  0  0  0  0  0  0  0  0  0  0
   -0.1907   12.4102   -0.5152 H   0  0  0  0  0  0  0  0  0  0  0  0
    1.8082   10.2815    0.4695 H   0  0  0  0  0  0  0  0  0  0  0  0
    1.2143   11.7328    1.3928 H   0  0  0  0  0  0  0  0  0  0  0  0
    0.1005    9.6439    2.1128 H   0  0  0  0  0  0  0  0  0  0  0  0
   -1.0444   10.8447    1.3971 H   0  0  0  0  0  0  0  0  0  0  0  0
   -1.5979    8.6623    0.5635 H   0  0  0  0  0  0  0  0  0  0  0  0
    1.0390    8.3180    0.6780 H   0  0  0  0  0  0  0  0  0  0  0  0
   -2.5802   10.7095   -0.0221 H   0  0  0  0  0  0  0  0  0  0  0  0
   -2.2040   11.5344   -1.5728 H   0  0  0  0  0  0  0  0  0  0  0  0
   -3.1652   10.0169   -1.5728 H   0  0  0  0  0  0  0  0  0  0  0  0
   -1.5974    7.6608   -1.6026 H   0  0  0  0  0  0  0  0  0  0  0  0
   -2.2097    8.8364   -2.8149 H   0  0  0  0  0  0  0  0  0  0  0  0
   -0.4758    8.3673   -2.8149 H   0  0  0  0  0  0  0  0  0  0  0  0
    3.3657   11.8154    0.1183 H   0  0  0  0  0  0  0  0  0  0  0  0
    3.1532   10.9140   -1.4209 H   0  0  0  0  0  0  0  0  0  0  0  0
    3.9788   12.5094   -1.4209 H   0  0  0  0  0  0  0  0  0  0  0  0
    1.5195   13.6658    0.7011 H   0  0  0  0  0  0  0  0  0  0  0  0
    2.8703   14.3062   -0.3940 H   0  0  0  0  0  0  0  0  0  0  0  0
   -0.1038   14.8447   -0.6196 H   0  0  0  0  0  0  0  0  0  0  0  0
    1.2256   16.0026   -0.2208 H   0  0  0  0  0  0  0  0  0  0  0  0
    3.1294   15.9614   -1.4939 H   0  0  0  0  0  0  0  0  0  0  0  0
    3.1964   15.0448   -3.0373 H   0  0  0  0  0  0  0  0  0  0  0  0
    2.6891   16.7680   -3.0373 H   0  0  0  0  0  0  0  0  0  0  0  0
  1  2  1  0
  2  3  1  0
  3  4  1  0
  4  5  1  0
  5  6  1  0
  6  7  1  0
  7  8  1  0
  7  9  1  0
  2 10  1  0
 10 11  1  0
 11 12  1  0
 12 13  1  0
 13 14  1  1
 13 15  1  0
 15 16  1  0
 16 17  1  0
 17 18  2  0
 18 19  1  0
 19 20  1  0
 20 21  1  0
 21 22  1  0
 22 23  1  0
 22 24  1  0
 24 25  1  0
 24 26  1  0
 19 27  1  0
 27 28  1  6
 27 29  1  0
 29 30  1  0
 30 31  1  0
 31 32  1  1
  7  5  1  0
 31 10  1  0
 31 13  1  0
 27 15  1  0
 24 18  1  0
  1 33  1  0
  1 34  1  0
  1 35  1  0
  2 36  1  6
  3 37  1  0
  3 38  1  0
  4 39  1  0
  4 40  1  0
  5 41  1  1
  8 42  1  0
  8 43  1  0
  8 44  1  0
  9 45  1  0
  9 46  1  0
  9 47  1  0
 10 48  1  1
 11 49  1  0
 11 50  1  0
 12 51  1  0
 12 52  1  0
 14 53  1  0
 14 54  1  0
 14 55  1  0
 15 56  1  6
 16 57  1  0
 16 58  1  0
 17 59  1  0
 19 60  1  1
 20 61  1  0
 20 62  1  0
 21 63  1  0
 21 64  1  0
 22 65  1  1
 23 66  1  0
 25 67  1  0
 25 68  1  0
 25 69  1  0
 26 70  1  0
 26 71  1  0
 26 72  1  0
 28 73  1  0
 28 74  1  0
 28 75  1  0
 29 76  1  0
 29 77  1  0
 30 78  1  0
 30 79  1  0
 32 80  1  0
 32 81  1  0
 32 82  1  0
M  END
>  <meeko>  (3) 
{"is_sidechain": [false], "intermolecular_energy": 2.731, "internal_energy": -0.839}

$$$$
EPH_relaxed_0001_pdb2pqr_Repair_379_r2_0001_out
     RDKit          3D

 82 86  0  0  0  0  0  0  0  0999 V2000
    0.3500   18.4900   -0.0370 C   0  0  0  0  0  0  0  0  0  0  0  0
    1.4410   17.4310   -0.2200 C   0  0  2  0  0  0  0  0  0  0  0  0
    2.6760   17.9900   -0.9540 C   0  0  0  0  0  0  0  0  0  0  0  0
    3.9000   18.1690   -0.0520 C   0  0  0  0  0  0  0  0  0  0  0  0
    3.5170   18.6730    1.3070 C   0  0  2  0  0  0  0  0  0  0  0  0
    3.7730   20.0670    1.5220 O   0  0  0  0  0  0  0  0  0  0  0  0
    4.5250   19.1530    2.3360 C   0  0  0  0  0  0  0  0  0  0  0  0
    5.9940   19.1490    2.0490 C   0  0  0  0  0  0  0  0  0  0  0  0
    4.1250   19.1610    3.7780 C   0  0  0  0  0  0  0  0  0  0  0  0
    0.8800   16.2340   -0.9790 C   0  0  1  0  0  0  0  0  0  0  0  0
    0.7360   16.5060   -2.5000 C   0  0  0  0  0  0  0  0  0  0  0  0
    1.0420   15.1700   -3.2250 C   0  0  0  0  0  0  0  0  0  0  0  0
    1.0240   14.1050   -2.1030 C   0  0  1  0  0  0  0  0  0  0  0  0
   -0.4870   13.7830   -1.8790 C   0  0  0  0  0  0  0  0  0  0  0  0
    1.8570   12.8090   -2.3680 C   0  0  2  0  0  0  0  0  0  0  0  0
    1.3920   11.9690   -3.5700 C   0  0  0  0  0  0  0  0  0  0  0  0
    0.3790   10.9170   -3.2590 C   0  0  0  0  0  0  0  0  0  0  0  0
    0.0730   10.4650   -2.0280 C   0  0  0  0  0  0  0  0  0  0  0  0
    0.8460   10.9530   -0.7960 C   0  0  1  0  0  0  0  0  0  0  0  0
    1.2270    9.7380    0.0900 C   0  0  0  0  0  0  0  0  0  0  0  0
    0.0210    8.8810    0.4590 C   0  0  0  0  0  0  0  0  0  0  0  0
   -0.6860    8.3670   -0.7920 C   0  0  2  0  0  0  0  0  0  0  0  0
    0.1810    7.4510   -1.4680 O   0  0  0  0  0  0  0  0  0  0  0  0
   -1.1100    9.5020   -1.7660 C   0  0  0  0  0  0  0  0  0  0  0  0
   -2.2710   10.3160   -1.1430 C   0  0  0  0  0  0  0  0  0  0  0  0
   -1.6830    8.8410   -3.0490 C   0  0  0  0  0  0  0  0  0  0  0  0
    2.0810   11.9090   -1.0860 C   0  0  1  0  0  0  0  0  0  0  0  0
    3.3600   11.0590   -1.3560 C   0  0  0  0  0  0  0  0  0  0  0  0
    2.3820   12.7660    0.2010 C   0  0  0  0  0  0  0  0  0  0  0  0
    1.6140   14.0940    0.3460 C   0  0  0  0  0  0  0  0  0  0  0  0
    1.7000   14.9200   -0.9410 C   0  0  2  0  0  0  0  0  0  0  0  0
    3.2060   15.2770   -1.1800 C   0  0  0  0  0  0  0  0  0  0  0  0
    0.1777   18.6572    1.0365 H   0  0  0  0  0  0  0  0  0  0  0  0
    0.6699   19.4312   -0.5080 H   0  0  0  0  0  0  0  0  0  0  0  0
   -0.5812   18.1422   -0.5080 H   0  0  0  0  0  0  0  0  0  0  0  0
    1.7684   17.1158    0.7817 H   0  0  0  0  0  0  0  0  0  0  0  0
    2.9412   17.2962   -1.7654 H   0  0  0  0  0  0  0  0  0  0  0  0
    2.4033   18.9882   -1.3272 H   0  0  0  0  0  0  0  0  0  0  0  0
    4.4075   17.1992    0.0572 H   0  0  0  0  0  0  0  0  0  0  0  0
    4.5648   18.9108   -0.5186 H   0  0  0  0  0  0  0  0  0  0  0  0
    2.6873   17.9533    1.3665 H   0  0  0  0  0  0  0  0  0  0  0  0
    6.5527   19.1475    2.9965 H   0  0  0  0  0  0  0  0  0  0  0  0
    6.2520   18.2501    1.4698 H   0  0  0  0  0  0  0  0  0  0  0  0
    6.2569   20.0464    1.4698 H   0  0  0  0  0  0  0  0  0  0  0  0
    5.0261   19.1430    4.4086 H   0  0  0  0  0  0  0  0  0  0  0  0
    3.5454   20.0709    3.9927 H   0  0  0  0  0  0  0  0  0  0  0  0
    3.5095   18.2750    3.9927 H   0  0  0  0  0  0  0  0  0  0  0  0
   -0.0691   16.1014   -0.4390 H   0  0  0  0  0  0  0  0  0  0  0  0
   -0.2877   16.8360   -2.7304 H   0  0  0  0  0  0  0  0  0  0  0  0
    1.4252   17.2989   -2.8261 H   0  0  0  0  0  0  0  0  0  0  0  0
    0.2719   14.9523   -3.9796 H   0  0  0  0  0  0  0  0  0  0  0  0
    2.0025   15.1961   -3.7604 H   0  0  0  0  0  0  0  0  0  0  0  0
   -0.6964   13.7384   -0.8000 H   0  0  0  0  0  0  0  0  0  0  0  0
   -1.1019   14.5703   -2.3396 H   0  0  0  0  0  0  0  0  0  0  0  0
   -0.7275   12.8134   -2.3396 H   0  0  0  0  0  0  0  0  0  0  0  0
    2.8402   13.2141   -2.6493 H   0  0  0  0  0  0  0  0  0  0  0  0
    0.9554   12.6521   -4.3135 H   0  0  0  0  0  0  0  0  0  0  0  0
    2.2835   11.4357   -3.9317 H   0  0  0  0  0  0  0  0  0  0  0  0
   -0.1632   10.4737   -4.1073 H   0  0  0  0  0  0  0  0  0  0  0  0
    0.1589   11.6140   -0.2475 H   0  0  0  0  0  0  0  0  0  0  0  0
    1.9480    9.1142   -0.4586 H   0  0  0  0  0  0  0  0  0  0  0  0
    1.6570   10.1284    1.0242 H   0  0  0  0  0  0  0  0  0  0  0  0
    0.3589    8.0236    1.0595 H   0  0  0  0  0  0  0  0  0  0  0  0
   -0.6857    9.4981    1.0332 H   0  0  0  0  0  0  0  0  0  0  0  0
   -1.6123    7.8706   -0.4672 H   0  0  0  0  0  0  0  0  0  0  0  0
    1.0540    7.8720   -1.5420 H   0  0  0  0  0  0  0  0  0  0  0  0
   -2.2043   10.2692   -0.0460 H   0  0  0  0  0  0  0  0  0  0  0  0
   -2.2011   11.3639   -1.4702 H   0  0  0  0  0  0  0  0  0  0  0  0
   -3.2323    9.8931   -1.4702 H   0  0  0  0  0  0  0  0  0  0  0  0
   -2.3796    8.0375   -2.7677 H   0  0  0  0  0  0  0  0  0  0  0  0
   -2.2163    9.5970   -3.6441 H   0  0  0  0  0  0  0  0  0  0  0  0
   -0.8590    8.4204   -3.6441 H   0  0  0  0  0  0  0  0  0  0  0  0
    3.8103   10.7597   -0.3981 H   0  0  0  0  0  0  0  0  0  0  0  0
    3.0889   10.1608   -1.9302 H   0  0  0  0  0  0  0  0  0  0  0  0
    4.0831   11.6568   -1.9302 H   0  0  0  0  0  0  0  0  0  0  0  0
    2.1428   12.1457    1.0774 H   0  0  0  0  0  0  0  0  0  0  0  0
    3.4403   13.0532    0.1149 H   0  0  0  0  0  0  0  0  0  0  0  0
    0.5580   13.8770    0.5645 H   0  0  0  0  0  0  0  0  0  0  0  0
    2.0655   14.6728    1.1652 H   0  0  0  0  0  0  0  0  0  0  0  0
    3.7126   15.3971   -0.2110 H   0  0  0  0  0  0  0  0  0  0  0  0
    3.6888   14.4684   -1.7484 H   0  0  0  0  0  0  0  0  0  0  0  0
    3.2744   16.2163   -1.7484 H   0  0  0  0  0  0  0  0  0  0  0  0
  1  2  1  0
  2  3  1  0
  3  4  1  0
  4  5  1  0
  5  6  1  0
  6  7  1  0
  7  8  1  0
  7  9  1  0
  2 10  1  0
 10 11  1  0
 11 12  1  0
 12 13  1  0
 13 14  1  1
 13 15  1  0
 15 16  1  0
 16 17  1  0
 17 18  2  0
 18 19  1  0
 19 20  1  0
 20 21  1  0
 21 22  1  0
 22 23  1  0
 22 24  1  0
 24 25  1  0
 24 26  1  0
 19 27  1  0
 27 28  1  6
 27 29  1  0
 29 30  1  0
 30 31  1  0
 31 32  1  6
  7  5  1  0
 31 10  1  0
 31 13  1  0
 27 15  1  0
 24 18  1  0
  1 33  1  0
  1 34  1  0
  1 35  1  0
  2 36  1  1
  3 37  1  0
  3 38  1  0
  4 39  1  0
  4 40  1  0
  5 41  1  1
  8 42  1  0
  8 43  1  0
  8 44  1  0
  9 45  1  0
  9 46  1  0
  9 47  1  0
 10 48  1  1
 11 49  1  0
 11 50  1  0
 12 51  1  0
 12 52  1  0
 14 53  1  0
 14 54  1  0
 14 55  1  0
 15 56  1  6
 16 57  1  0
 16 58  1  0
 17 59  1  0
 19 60  1  1
 20 61  1  0
 20 62  1  0
 21 63  1  0
 21 64  1  0
 22 65  1  1
 23 66  1  0
 25 67  1  0
 25 68  1  0
 25 69  1  0
 26 70  1  0
 26 71  1  0
 26 72  1  0
 28 73  1  0
 28 74  1  0
 28 75  1  0
 29 76  1  0
 29 77  1  0
 30 78  1  0
 30 79  1  0
 32 80  1  0
 32 81  1  0
 32 82  1  0
M  END
>  <meeko>  (4) 
{"is_sidechain": [false], "intermolecular_energy": 2.731, "internal_energy": -0.839}

$$$$
EPH_relaxed_0001_pdb2pqr_Repair_379_r2_0001_out
     RDKit          3D

 82 86  0  0  0  0  0  0  0  0999 V2000
   -3.0200    8.9620    0.2640 C   0  0  0  0  0  0  0  0  0  0  0  0
   -2.4300    9.6750   -0.9550 C   0  0  2  0  0  0  0  0  0  0  0  0
   -1.7350    8.6960   -1.9220 C   0  0  0  0  0  0  0  0  0  0  0  0
   -2.4110    7.3240   -2.0000 C   0  0  0  0  0  0  0  0  0  0  0  0
   -3.4890    7.2960   -3.0410 C   0  0  2  0  0  0  0  0  0  0  0  0
   -4.8070    7.5650   -2.5460 O   0  0  0  0  0  0  0  0  0  0  0  0
   -4.5870    6.2500   -3.0800 C   0  0  0  0  0  0  0  0  0  0  0  0
   -4.6610    5.1570   -2.0600 C   0  0  0  0  0  0  0  0  0  0  0  0
   -5.2910    6.0000   -4.3770 C   0  0  0  0  0  0  0  0  0  0  0  0
   -1.4460   10.7480   -0.5040 C   0  0  1  0  0  0  0  0  0  0  0  0
   -0.4110   10.2150    0.5230 C   0  0  0  0  0  0  0  0  0  0  0  0
    0.9210   10.9560    0.2400 C   0  0  0  0  0  0  0  0  0  0  0  0
    0.5300   12.1160   -0.7050 C   0  0  1  0  0  0  0  0  0  0  0  0
   -0.0340   13.2270    0.2350 C   0  0  0  0  0  0  0  0  0  0  0  0
    1.6640   12.6650   -1.6320 C   0  0  2  0  0  0  0  0  0  0  0  0
    2.8640   13.2850   -0.8960 C   0  0  0  0  0  0  0  0  0  0  0  0
    2.7600   14.7500   -0.6280 C   0  0  0  0  0  0  0  0  0  0  0  0
    1.8830   15.5910   -1.2080 C   0  0  0  0  0  0  0  0  0  0  0  0
    0.9380   15.1040   -2.3130 C   0  0  1  0  0  0  0  0  0  0  0  0
    0.9500   16.1160   -3.4880 C   0  0  0  0  0  0  0  0  0  0  0  0
    0.6360   17.5400   -3.0380 C   0  0  0  0  0  0  0  0  0  0  0  0
    1.6330   18.0090   -1.9810 C   0  0  2  0  0  0  0  0  0  0  0  0
    2.9240   18.1260   -2.5860 O   0  0  0  0  0  0  0  0  0  0  0  0
    1.7150   17.0610   -0.7520 C   0  0  0  0  0  0  0  0  0  0  0  0
    0.4100   17.1670    0.0750 C   0  0  0  0  0  0  0  0  0  0  0  0
    2.8550   17.5720    0.1690 C   0  0  0  0  0  0  0  0  0  0  0  0
    1.1500   13.6050   -2.7970 C   0  0  1  0  0  0  0  0  0  0  0  0
    2.2330   13.5560   -3.9180 C   0  0  0  0  0  0  0  0  0  0  0  0
   -0.1850   13.0790   -3.4450 C   0  0  0  0  0  0  0  0  0  0  0  0
   -1.2140   12.4400   -2.4940 C   0  0  0  0  0  0  0  0  0  0  0  0
   -0.5510   11.3960   -1.5900 C   0  0  2  0  0  0  0  0  0  0  0  0
    0.0060   10.2540   -2.5070 C   0  0  0  0  0  0  0  0  0  0  0  0
   -2.6347    9.4276    1.1831 H   0  0  0  0  0  0  0  0  0  0  0  0
   -4.1166    9.0456    0.2425 H   0  0  0  0  0  0  0  0  0  0  0  0
   -2.7327    7.9004    0.2425 H   0  0  0  0  0  0  0  0  0  0  0  0
   -3.2640   10.1406   -1.5006 H   0  0  0  0  0  0  0  0  0  0  0  0
   -1.7364    9.1415   -2.9277 H   0  0  0  0  0  0  0  0  0  0  0  0
   -0.7177    8.5318   -1.5372 H   0  0  0  0  0  0  0  0  0  0  0  0
   -1.6534    6.5670   -2.2508 H   0  0  0  0  0  0  0  0  0  0  0  0
   -2.8713    7.1123   -1.0236 H   0  0  0  0  0  0  0  0  0  0  0  0
   -2.7902    7.6614   -3.8079 H   0  0  0  0  0  0  0  0  0  0  0  0
   -4.6314    5.5944   -1.0511 H   0  0  0  0  0  0  0  0  0  0  0  0
   -5.5991    4.5974   -2.1897 H   0  0  0  0  0  0  0  0  0  0  0  0
   -3.8069    4.4760   -2.1897 H   0  0  0  0  0  0  0  0  0  0  0  0
   -6.3103    5.6380   -4.1771 H   0  0  0  0  0  0  0  0  0  0  0  0
   -5.3406    6.9355   -4.9535 H   0  0  0  0  0  0  0  0  0  0  0  0
   -4.7395    5.2428   -4.9535 H   0  0  0  0  0  0  0  0  0  0  0  0
   -2.1535   11.4913   -0.1078 H   0  0  0  0  0  0  0  0  0  0  0  0
   -0.7512   10.4251    1.5477 H   0  0  0  0  0  0  0  0  0  0  0  0
   -0.2854    9.1263    0.4289 H   0  0  0  0  0  0  0  0  0  0  0  0
    1.3547   11.3449    1.1731 H   0  0  0  0  0  0  0  0  0  0  0  0
    1.6797   10.2946   -0.2037 H   0  0  0  0  0  0  0  0  0  0  0  0
    0.1162   12.9311    1.2837 H   0  0  0  0  0  0  0  0  0  0  0  0
    0.4930   14.1730    0.0419 H   0  0  0  0  0  0  0  0  0  0  0  0
   -1.1087   13.3599    0.0419 H   0  0  0  0  0  0  0  0  0  0  0  0
    2.0461   11.7493   -2.1069 H   0  0  0  0  0  0  0  0  0  0  0  0
    2.9737   12.7697    0.0696 H   0  0  0  0  0  0  0  0  0  0  0  0
    3.7290   13.1584   -1.5636 H   0  0  0  0  0  0  0  0  0  0  0  0
    3.4590   15.1786    0.1053 H   0  0  0  0  0  0  0  0  0  0  0  0
   -0.0642   15.0682   -1.8610 H   0  0  0  0  0  0  0  0  0  0  0  0
    1.9470   16.1049   -3.9526 H   0  0  0  0  0  0  0  0  0  0  0  0
    0.1682   15.8108   -4.1991 H   0  0  0  0  0  0  0  0  0  0  0  0
    0.6892   18.2124   -3.9069 H   0  0  0  0  0  0  0  0  0  0  0  0
   -0.3734   17.5563   -2.6012 H   0  0  0  0  0  0  0  0  0  0  0  0
    1.2815   18.9806   -1.6036 H   0  0  0  0  0  0  0  0  0  0  0  0
    3.5720   18.2550   -1.8730 H   0  0  0  0  0  0  0  0  0  0  0  0
    0.6530   17.1473    1.1476 H   0  0  0  0  0  0  0  0  0  0  0  0
   -0.1023   18.1097   -0.1676 H   0  0  0  0  0  0  0  0  0  0  0  0
   -0.2477   16.3193   -0.1676 H   0  0  0  0  0  0  0  0  0  0  0  0
    2.5627   17.4410    1.2213 H   0  0  0  0  0  0  0  0  0  0  0  0
    3.7725   16.9990   -0.0308 H   0  0  0  0  0  0  0  0  0  0  0  0
    3.0377   18.6382   -0.0308 H   0  0  0  0  0  0  0  0  0  0  0  0
    3.2324   13.5108   -3.4606 H   0  0  0  0  0  0  0  0  0  0  0  0
    2.0747   12.6641   -4.5421 H   0  0  0  0  0  0  0  0  0  0  0  0
    2.1559   14.4586   -4.5421 H   0  0  0  0  0  0  0  0  0  0  0  0
   -0.6734   13.9317   -3.9393 H   0  0  0  0  0  0  0  0  0  0  0  0
    0.1235   12.2685   -4.1217 H   0  0  0  0  0  0  0  0  0  0  0  0
   -1.6618   13.2258   -1.8679 H   0  0  0  0  0  0  0  0  0  0  0  0
   -1.9868   11.9413   -3.0974 H   0  0  0  0  0  0  0  0  0  0  0  0
    0.4024    9.4413   -1.8806 H   0  0  0  0  0  0  0  0  0  0  0  0
   -0.8039    9.8658   -3.1421 H   0  0  0  0  0  0  0  0  0  0  0  0
    0.8106   10.6532   -3.1421 H   0  0  0  0  0  0  0  0  0  0  0  0
  1  2  1  0
  2  3  1  0
  3  4  1  0
  4  5  1  0
  5  6  1  0
  6  7  1  0
  7  8  1  0
  7  9  1  0
  2 10  1  0
 10 11  1  0
 11 12  1  0
 12 13  1  0
 13 14  1  1
 13 15  1  0
 15 16  1  0
 16 17  1  0
 17 18  2  0
 18 19  1  0
 19 20  1  0
 20 21  1  0
 21 22  1  0
 22 23  1  0
 22 24  1  0
 24 25  1  0
 24 26  1  0
 19 27  1  0
 27 28  1  6
 27 29  1  0
 29 30  1  0
 30 31  1  0
 31 32  1  6
  7  5  1  0
 31 10  1  0
 31 13  1  0
 27 15  1  0
 24 18  1  0
  1 33  1  0
  1 34  1  0
  1 35  1  0
  2 36  1  6
  3 37  1  0
  3 38  1  0
  4 39  1  0
  4 40  1  0
  5 41  1  6
  8 42  1  0
  8 43  1  0
  8 44  1  0
  9 45  1  0
  9 46  1  0
  9 47  1  0
 10 48  1  1
 11 49  1  0
 11 50  1  0
 12 51  1  0
 12 52  1  0
 14 53  1  0
 14 54  1  0
 14 55  1  0
 15 56  1  6
 16 57  1  0
 16 58  1  0
 17 59  1  0
 19 60  1  1
 20 61  1  0
 20 62  1  0
 21 63  1  0
 21 64  1  0
 22 65  1  1
 23 66  1  0
 25 67  1  0
 25 68  1  0
 25 69  1  0
 26 70  1  0
 26 71  1  0
 26 72  1  0
 28 73  1  0
 28 74  1  0
 28 75  1  0
 29 76  1  0
 29 77  1  0
 30 78  1  0
 30 79  1  0
 32 80  1  0
 32 81  1  0
 32 82  1  0
M  END
>  <meeko>  (5) 
{"is_sidechain": [false], "intermolecular_energy": 2.731, "internal_energy": -0.839}

$$$$
EPH_relaxed_0001_pdb2pqr_Repair_379_r2_0001_out
     RDKit          3D

 82 86  0  0  0  0  0  0  0  0999 V2000
    3.6720   17.6900    0.6670 C   0  0  0  0  0  0  0  0  0  0  0  0
    2.8000   17.9800   -0.5580 C   0  0  2  0  0  0  0  0  0  0  0  0
    2.1240   19.3630   -0.4750 C   0  0  0  0  0  0  0  0  0  0  0  0
    1.2390   19.5430    0.7620 C   0  0  0  0  0  0  0  0  0  0  0  0
   -0.0930   20.1310    0.4100 C   0  0  2  0  0  0  0  0  0  0  0  0
   -1.0280   20.1900    1.4960 O   0  0  0  0  0  0  0  0  0  0  0  0
   -1.3840   19.3330    0.3990 C   0  0  0  0  0  0  0  0  0  0  0  0
   -1.4030   17.8770    0.7460 C   0  0  0  0  0  0  0  0  0  0  0  0
   -2.5320   19.8410   -0.4150 C   0  0  0  0  0  0  0  0  0  0  0  0
    1.7430   16.8930   -0.7130 C   0  0  1  0  0  0  0  0  0  0  0  0
    0.5200   17.3630   -1.5450 C   0  0  0  0  0  0  0  0  0  0  0  0
    0.0310   16.1340   -2.3550 C   0  0  0  0  0  0  0  0  0  0  0  0
    0.7670   14.9310   -1.7210 C   0  0  1  0  0  0  0  0  0  0  0  0
   -0.0620   14.5790   -0.4470 C   0  0  0  0  0  0  0  0  0  0  0  0
    0.9700   13.6830   -2.6400 C   0  0  2  0  0  0  0  0  0  0  0  0
   -0.3270   13.0070   -3.1190 C   0  0  0  0  0  0  0  0  0  0  0  0
   -0.8440   11.9210   -2.2350 C   0  0  0  0  0  0  0  0  0  0  0  0
   -0.1480   11.3110   -1.2580 C   0  0  0  0  0  0  0  0  0  0  0  0
    1.3330   11.6330   -1.0260 C   0  0  1  0  0  0  0  0  0  0  0  0
    2.1310   10.3130   -0.8610 C   0  0  0  0  0  0  0  0  0  0  0  0
    1.5530    9.4120    0.2260 C   0  0  0  0  0  0  0  0  0  0  0  0
    0.0960    9.0660   -0.0700 C   0  0  2  0  0  0  0  0  0  0  0  0
    0.0460    8.2490   -1.2440 O   0  0  0  0  0  0  0  0  0  0  0  0
   -0.8030   10.3180   -0.2650 C   0  0  0  0  0  0  0  0  0  0  0  0
   -0.9920   11.0410    1.0910 C   0  0  0  0  0  0  0  0  0  0  0  0
   -2.2130    9.8310   -0.6970 C   0  0  0  0  0  0  0  0  0  0  0  0
    2.0000   12.6220   -2.0760 C   0  0  1  0  0  0  0  0  0  0  0  0
    2.5290   11.8180   -3.3030 C   0  0  0  0  0  0  0  0  0  0  0  0
    3.2570   13.3020   -1.4150 C   0  0  0  0  0  0  0  0  0  0  0  0
    3.0090   14.5980   -0.6200 C   0  0  0  0  0  0  0  0  0  0  0  0
    2.1670   15.5870   -1.4310 C   0  0  2  0  0  0  0  0  0  0  0  0
    2.9850   15.9760   -2.7090 C   0  0  0  0  0  0  0  0  0  0  0  0
    3.0936   17.8824    1.5827 H   0  0  0  0  0  0  0  0  0  0  0  0
    3.9910   16.6374    0.6491 H   0  0  0  0  0  0  0  0  0  0  0  0
    4.5578   18.3419    0.6491 H   0  0  0  0  0  0  0  0  0  0  0  0
    3.4589   17.9864   -1.4388 H   0  0  0  0  0  0  0  0  0  0  0  0
    2.9095   20.1328   -0.4549 H   0  0  0  0  0  0  0  0  0  0  0  0
    1.4694   19.4539   -1.3543 H   0  0  0  0  0  0  0  0  0  0  0  0
    1.0820   18.5618    1.2337 H   0  0  0  0  0  0  0  0  0  0  0  0
    1.7479   20.2344    1.4498 H   0  0  0  0  0  0  0  0  0  0  0  0
    0.3708   20.7944   -0.3349 H   0  0  0  0  0  0  0  0  0  0  0  0
   -1.4045   17.7607    1.8398 H   0  0  0  0  0  0  0  0  0  0  0  0
   -2.3073   17.4119    0.3266 H   0  0  0  0  0  0  0  0  0  0  0  0
   -0.5112   17.3884    0.3266 H   0  0  0  0  0  0  0  0  0  0  0  0
   -3.3293   20.1938    0.2557 H   0  0  0  0  0  0  0  0  0  0  0  0
   -2.1919   20.6727   -1.0496 H   0  0  0  0  0  0  0  0  0  0  0  0
   -2.9188   19.0300   -1.0496 H   0  0  0  0  0  0  0  0  0  0  0  0
    1.5315   16.6885    0.3469 H   0  0  0  0  0  0  0  0  0  0  0  0
   -0.2784   17.7186   -0.8771 H   0  0  0  0  0  0  0  0  0  0  0  0
    0.7923   18.1934   -2.2130 H   0  0  0  0  0  0  0  0  0  0  0  0
   -1.0586   16.0158   -2.2614 H   0  0  0  0  0  0  0  0  0  0  0  0
    0.2416   16.2324   -3.4302 H   0  0  0  0  0  0  0  0  0  0  0  0
    0.5227   14.8273    0.4511 H   0  0  0  0  0  0  0  0  0  0  0  0
   -0.9976   15.1575   -0.4469 H   0  0  0  0  0  0  0  0  0  0  0  0
   -0.2955   13.5041   -0.4469 H   0  0  0  0  0  0  0  0  0  0  0  0
    1.4265   14.1245   -3.5381 H   0  0  0  0  0  0  0  0  0  0  0  0
   -1.1048   13.7809   -3.1971 H   0  0  0  0  0  0  0  0  0  0  0  0
   -0.0840   12.5281   -4.0790 H   0  0  0  0  0  0  0  0  0  0  0  0
   -1.8811   11.5916   -2.3957 H   0  0  0  0  0  0  0  0  0  0  0  0
    1.3751   12.2132   -0.0924 H   0  0  0  0  0  0  0  0  0  0  0  0
    2.1134    9.7685   -1.8166 H   0  0  0  0  0  0  0  0  0  0  0  0
    3.1568   10.5777   -0.5648 H   0  0  0  0  0  0  0  0  0  0  0  0
    2.1409    8.4835    0.2743 H   0  0  0  0  0  0  0  0  0  0  0  0
    1.5988    9.9466    1.1863 H   0  0  0  0  0  0  0  0  0  0  0  0
   -0.3004    8.5291    0.8044 H   0  0  0  0  0  0  0  0  0  0  0  0
   -0.4360    7.4360   -1.0170 H   0  0  0  0  0  0  0  0  0  0  0  0
   -0.8070   10.3335    1.9127 H   0  0  0  0  0  0  0  0  0  0  0  0
   -0.2827   11.8788    1.1618 H   0  0  0  0  0  0  0  0  0  0  0  0
   -2.0206   11.4245    1.1618 H   0  0  0  0  0  0  0  0  0  0  0  0
   -2.8186    9.6218    0.1972 H   0  0  0  0  0  0  0  0  0  0  0  0
   -2.7028   10.6120   -1.2971 H   0  0  0  0  0  0  0  0  0  0  0  0
   -2.1163    8.9142   -1.2971 H   0  0  0  0  0  0  0  0  0  0  0  0
    3.1019   10.9473   -2.9514 H   0  0  0  0  0  0  0  0  0  0  0  0
    1.6788   11.4761   -3.9115 H   0  0  0  0  0  0  0  0  0  0  0  0
    3.1794   12.4635   -3.9115 H   0  0  0  0  0  0  0  0  0  0  0  0
    3.7075   12.5711   -0.7274 H   0  0  0  0  0  0  0  0  0  0  0  0
    3.8989   13.5998   -2.2572 H   0  0  0  0  0  0  0  0  0  0  0  0
    2.4777   14.3525    0.3114 H   0  0  0  0  0  0  0  0  0  0  0  0
    3.9803   15.0643   -0.3983 H   0  0  0  0  0  0  0  0  0  0  0  0
    3.9406   16.4304   -2.4085 H   0  0  0  0  0  0  0  0  0  0  0  0
    3.1801   15.0743   -3.3080 H   0  0  0  0  0  0  0  0  0  0  0  0
    2.4087   16.6965   -3.3080 H   0  0  0  0  0  0  0  0  0  0  0  0
  1  2  1  0
  2  3  1  0
  3  4  1  0
  4  5  1  0
  5  6  1  0
  6  7  1  0
  7  8  1  0
  7  9  1  0
  2 10  1  0
 10 11  1  0
 11 12  1  0
 12 13  1  0
 13 14  1  1
 13 15  1  0
 15 16  1  0
 16 17  1  0
 17 18  2  0
 18 19  1  0
 19 20  1  0
 20 21  1  0
 21 22  1  0
 22 23  1  0
 22 24  1  0
 24 25  1  0
 24 26  1  0
 19 27  1  0
 27 28  1  6
 27 29  1  0
 29 30  1  0
 30 31  1  0
 31 32  1  6
  7  5  1  0
 31 10  1  0
 31 13  1  0
 27 15  1  0
 24 18  1  0
  1 33  1  0
  1 34  1  0
  1 35  1  0
  2 36  1  6
  3 37  1  0
  3 38  1  0
  4 39  1  0
  4 40  1  0
  5 41  1  6
  8 42  1  0
  8 43  1  0
  8 44  1  0
  9 45  1  0
  9 46  1  0
  9 47  1  0
 10 48  1  1
 11 49  1  0
 11 50  1  0
 12 51  1  0
 12 52  1  0
 14 53  1  0
 14 54  1  0
 14 55  1  0
 15 56  1  6
 16 57  1  0
 16 58  1  0
 17 59  1  0
 19 60  1  1
 20 61  1  0
 20 62  1  0
 21 63  1  0
 21 64  1  0
 22 65  1  1
 23 66  1  0
 25 67  1  0
 25 68  1  0
 25 69  1  0
 26 70  1  0
 26 71  1  0
 26 72  1  0
 28 73  1  0
 28 74  1  0
 28 75  1  0
 29 76  1  0
 29 77  1  0
 30 78  1  0
 30 79  1  0
 32 80  1  0
 32 81  1  0
 32 82  1  0
M  END
>  <meeko>  (6) 
{"is_sidechain": [false], "intermolecular_energy": 2.731, "internal_energy": -0.839}

$$$$
EPH_relaxed_0001_pdb2pqr_Repair_379_r2_0001_out
     RDKit          3D

 82 86  0  0  0  0  0  0  0  0999 V2000
   -1.0870    8.7860   -2.2380 C   0  0  0  0  0  0  0  0  0  0  0  0
   -1.4000    9.0620   -0.7650 C   0  0  2  0  0  0  0  0  0  0  0  0
   -2.9160    9.1220   -0.4940 C   0  0  0  0  0  0  0  0  0  0  0  0
   -3.7690    8.6070   -1.6570 C   0  0  0  0  0  0  0  0  0  0  0  0
   -3.7150    7.1130   -1.7650 C   0  0  2  0  0  0  0  0  0  0  0  0
   -3.0300    6.6220   -2.9240 O   0  0  0  0  0  0  0  0  0  0  0  0
   -4.4340    6.3260   -2.8450 C   0  0  0  0  0  0  0  0  0  0  0  0
   -5.2590    7.0090   -3.8900 C   0  0  0  0  0  0  0  0  0  0  0  0
   -4.7320    4.8800   -2.5970 C   0  0  0  0  0  0  0  0  0  0  0  0
   -0.7410   10.3660   -0.3290 C   0  0  1  0  0  0  0  0  0  0  0  0
    0.2250   10.1760    0.8700 C   0  0  0  0  0  0  0  0  0  0  0  0
    1.3960   11.1710    0.6630 C   0  0  0  0  0  0  0  0  0  0  0  0
    0.9070   12.1220   -0.4540 C   0  0  1  0  0  0  0  0  0  0  0  0
   -0.0090   13.1560    0.2720 C   0  0  0  0  0  0  0  0  0  0  0  0
    2.0190   12.8280   -1.2970 C   0  0  2  0  0  0  0  0  0  0  0  0
    2.9420   13.7680   -0.5020 C   0  0  0  0  0  0  0  0  0  0  0  0
    2.4910   15.1890   -0.4250 C   0  0  0  0  0  0  0  0  0  0  0  0
    1.5480   15.7540   -1.2020 C   0  0  0  0  0  0  0  0  0  0  0  0
    0.8960   14.9680   -2.3470 C   0  0  1  0  0  0  0  0  0  0  0  0
    0.8610   15.8470   -3.6250 C   0  0  0  0  0  0  0  0  0  0  0  0
    0.1910   17.1970   -3.3880 C   0  0  0  0  0  0  0  0  0  0  0  0
    0.9030   17.9730   -2.2830 C   0  0  2  0  0  0  0  0  0  0  0  0
    2.2130   18.3250   -2.7380 O   0  0  0  0  0  0  0  0  0  0  0  0
    1.0070   17.1830   -0.9490 C   0  0  0  0  0  0  0  0  0  0  0  0
   -0.3950   17.0640   -0.3030 C   0  0  0  0  0  0  0  0  0  0  0  0
    1.8690   18.0200    0.0350 C   0  0  0  0  0  0  0  0  0  0  0  0
    1.4900   13.5190   -2.6190 C   0  0  1  0  0  0  0  0  0  0  0  0
    2.7070   13.6160   -3.5880 C   0  0  0  0  0  0  0  0  0  0  0  0
    0.4040   12.6490   -3.3550 C   0  0  0  0  0  0  0  0  0  0  0  0
   -0.5920   11.8800   -2.4650 C   0  0  0  0  0  0  0  0  0  0  0  0
    0.1420   11.0990   -1.3700 C   0  0  2  0  0  0  0  0  0  0  0  0
    1.0540   10.0360   -2.0710 C   0  0  0  0  0  0  0  0  0  0  0  0
   -0.2636    8.0600   -2.3081 H   0  0  0  0  0  0  0  0  0  0  0  0
   -1.9803    8.3762   -2.7321 H   0  0  0  0  0  0  0  0  0  0  0  0
   -0.7922    9.7235   -2.7321 H   0  0  0  0  0  0  0  0  0  0  0  0
   -0.9932    8.2251   -0.1784 H   0  0  0  0  0  0  0  0  0  0  0  0
   -3.1346    8.5113    0.3944 H   0  0  0  0  0  0  0  0  0  0  0  0
   -3.1754   10.1811   -0.3487 H   0  0  0  0  0  0  0  0  0  0  0  0
   -4.8128    8.9154   -1.4974 H   0  0  0  0  0  0  0  0  0  0  0  0
   -3.3703    9.0329   -2.5896 H   0  0  0  0  0  0  0  0  0  0  0  0
   -3.6909    7.0106   -0.6700 H   0  0  0  0  0  0  0  0  0  0  0  0
   -6.0190    7.6382   -3.4038 H   0  0  0  0  0  0  0  0  0  0  0  0
   -4.6095    7.6373   -4.5172 H   0  0  0  0  0  0  0  0  0  0  0  0
   -5.7550    6.2536   -4.5172 H   0  0  0  0  0  0  0  0  0  0  0  0
   -4.7703    4.6941   -1.5135 H   0  0  0  0  0  0  0  0  0  0  0  0
   -5.7020    4.6230   -3.0476 H   0  0  0  0  0  0  0  0  0  0  0  0
   -3.9427    4.2604   -3.0476 H   0  0  0  0  0  0  0  0  0  0  0  0
   -1.6393   10.9621   -0.1105 H   0  0  0  0  0  0  0  0  0  0  0  0
   -0.2955   10.3946    1.8141 H   0  0  0  0  0  0  0  0  0  0  0  0
    0.5914    9.1401    0.9217 H   0  0  0  0  0  0  0  0  0  0  0  0
    1.5984   11.7304    1.5883 H   0  0  0  0  0  0  0  0  0  0  0  0
    2.3339   10.6618    0.3964 H   0  0  0  0  0  0  0  0  0  0  0  0
    0.0957   13.0378    1.3606 H   0  0  0  0  0  0  0  0  0  0  0  0
    0.2881   14.1751   -0.0164 H   0  0  0  0  0  0  0  0  0  0  0  0
   -1.0565   12.9840   -0.0164 H   0  0  0  0  0  0  0  0  0  0  0  0
    2.6504   11.9832   -1.6095 H   0  0  0  0  0  0  0  0  0  0  0  0
    3.0199   13.3800    0.5243 H   0  0  0  0  0  0  0  0  0  0  0  0
    3.9005   13.7816   -1.0416 H   0  0  0  0  0  0  0  0  0  0  0  0
    2.9699   15.8288    0.3309 H   0  0  0  0  0  0  0  0  0  0  0  0
   -0.1302   14.7469   -2.0184 H   0  0  0  0  0  0  0  0  0  0  0  0
    1.8936   16.0201   -3.9623 H   0  0  0  0  0  0  0  0  0  0  0  0
    0.2721   15.3104   -4.3834 H   0  0  0  0  0  0  0  0  0  0  0  0
    0.2237   17.7833   -4.3181 H   0  0  0  0  0  0  0  0  0  0  0  0
   -0.8504   17.0227   -3.0796 H   0  0  0  0  0  0  0  0  0  0  0  0
    0.3026   18.8697   -2.0696 H   0  0  0  0  0  0  0  0  0  0  0  0
    2.7800   17.5420   -2.6350 H   0  0  0  0  0  0  0  0  0  0  0  0
   -0.2959   17.0724    0.7925 H   0  0  0  0  0  0  0  0  0  0  0  0
   -1.0186   17.9124   -0.6213 H   0  0  0  0  0  0  0  0  0  0  0  0
   -0.8667   16.1226   -0.6213 H   0  0  0  0  0  0  0  0  0  0  0  0
    1.6011   17.7599    1.0697 H   0  0  0  0  0  0  0  0  0  0  0  0
    2.9339   17.8021   -0.1339 H   0  0  0  0  0  0  0  0  0  0  0  0
    1.6826   19.0909   -0.1339 H   0  0  0  0  0  0  0  0  0  0  0  0
    3.6360   13.6900   -3.0036 H   0  0  0  0  0  0  0  0  0  0  0  0
    2.7433   12.7179   -4.2221 H   0  0  0  0  0  0  0  0  0  0  0  0
    2.6006   14.5085   -4.2221 H   0  0  0  0  0  0  0  0  0  0  0  0
   -0.1786   13.3216   -4.0017 H   0  0  0  0  0  0  0  0  0  0  0  0
    0.9714   11.8723   -3.8887 H   0  0  0  0  0  0  0  0  0  0  0  0
   -1.2822   12.5962   -1.9952 H   0  0  0  0  0  0  0  0  0  0  0  0
   -1.1462   11.1671   -3.0932 H   0  0  0  0  0  0  0  0  0  0  0  0
    1.5697    9.4349   -1.3077 H   0  0  0  0  0  0  0  0  0  0  0  0
    0.4347    9.3785   -2.6988 H   0  0  0  0  0  0  0  0  0  0  0  0
    1.7980   10.5481   -2.6988 H   0  0  0  0  0  0  0  0  0  0  0  0
  1  2  1  0
  2  3  1  0
  3  4  1  0
  4  5  1  0
  5  6  1  0
  6  7  1  0
  7  8  1  0
  7  9  1  0
  2 10  1  0
 10 11  1  0
 11 12  1  0
 12 13  1  0
 13 14  1  1
 13 15  1  0
 15 16  1  0
 16 17  1  0
 17 18  2  0
 18 19  1  0
 19 20  1  0
 20 21  1  0
 21 22  1  0
 22 23  1  0
 22 24  1  0
 24 25  1  0
 24 26  1  0
 19 27  1  0
 27 28  1  6
 27 29  1  0
 29 30  1  0
 30 31  1  0
 31 32  1  6
  7  5  1  0
 31 10  1  0
 31 13  1  0
 27 15  1  0
 24 18  1  0
  1 33  1  0
  1 34  1  0
  1 35  1  0
  2 36  1  1
  3 37  1  0
  3 38  1  0
  4 39  1  0
  4 40  1  0
  5 41  1  1
  8 42  1  0
  8 43  1  0
  8 44  1  0
  9 45  1  0
  9 46  1  0
  9 47  1  0
 10 48  1  1
 11 49  1  0
 11 50  1  0
 12 51  1  0
 12 52  1  0
 14 53  1  0
 14 54  1  0
 14 55  1  0
 15 56  1  6
 16 57  1  0
 16 58  1  0
 17 59  1  0
 19 60  1  1
 20 61  1  0
 20 62  1  0
 21 63  1  0
 21 64  1  0
 22 65  1  1
 23 66  1  0
 25 67  1  0
 25 68  1  0
 25 69  1  0
 26 70  1  0
 26 71  1  0
 26 72  1  0
 28 73  1  0
 28 74  1  0
 28 75  1  0
 29 76  1  0
 29 77  1  0
 30 78  1  0
 30 79  1  0
 32 80  1  0
 32 81  1  0
 32 82  1  0
M  END
>  <meeko>  (7) 
{"is_sidechain": [false], "intermolecular_energy": 2.731, "internal_energy": -0.839}

$$$$
EPH_relaxed_0001_pdb2pqr_Repair_379_r2_0001_out
     RDKit          3D

 82 86  0  0  0  0  0  0  0  0999 V2000
    0.4250    8.7980   -2.3480 C   0  0  0  0  0  0  0  0  0  0  0  0
    1.1570    9.9380   -3.0610 C   0  0  2  0  0  0  0  0  0  0  0  0
    2.6620    9.9600   -2.7270 C   0  0  0  0  0  0  0  0  0  0  0  0
    3.5250   10.6050   -3.8150 C   0  0  0  0  0  0  0  0  0  0  0  0
    4.9270   10.8460   -3.3410 C   0  0  2  0  0  0  0  0  0  0  0  0
    5.5310   12.0440   -3.8450 O   0  0  0  0  0  0  0  0  0  0  0  0
    6.1370   10.8070   -4.2560 C   0  0  0  0  0  0  0  0  0  0  0  0
    6.0020   10.5180   -5.7180 C   0  0  0  0  0  0  0  0  0  0  0  0
    7.4840   10.5650   -3.6490 C   0  0  0  0  0  0  0  0  0  0  0  0
    0.5230   11.2740   -2.6930 C   0  0  1  0  0  0  0  0  0  0  0  0
   -0.8490   11.1090   -1.9860 C   0  0  0  0  0  0  0  0  0  0  0  0
   -0.9560   12.2520   -0.9440 C   0  0  0  0  0  0  0  0  0  0  0  0
    0.1920   13.2210   -1.3090 C   0  0  1  0  0  0  0  0  0  0  0  0
   -0.3650   14.0770   -2.4900 C   0  0  0  0  0  0  0  0  0  0  0  0
    0.7320   14.1210   -0.1490 C   0  0  2  0  0  0  0  0  0  0  0  0
   -0.2930   15.1000    0.4480 C   0  0  0  0  0  0  0  0  0  0  0  0
   -0.3400   16.4460   -0.1970 C   0  0  0  0  0  0  0  0  0  0  0  0
    0.5970   16.9510   -1.0210 C   0  0  0  0  0  0  0  0  0  0  0  0
    1.8950   16.1840   -1.3020 C   0  0  1  0  0  0  0  0  0  0  0  0
    3.1030   17.1500   -1.1840 C   0  0  0  0  0  0  0  0  0  0  0  0
    2.9530   18.3860   -2.0660 C   0  0  0  0  0  0  0  0  0  0  0  0
    1.6810   19.1540   -1.7160 C   0  0  2  0  0  0  0  0  0  0  0  0
    1.8170   19.6960   -0.3990 O   0  0  0  0  0  0  0  0  0  0  0  0
    0.3970   18.2800   -1.7910 C   0  0  0  0  0  0  0  0  0  0  0  0
    0.0840   17.9420   -3.2700 C   0  0  0  0  0  0  0  0  0  0  0  0
   -0.7930   19.1350   -1.2800 C   0  0  0  0  0  0  0  0  0  0  0  0
    2.1020   14.8440   -0.4740 C   0  0  1  0  0  0  0  0  0  0  0  0
    2.7730   15.1630    0.8970 C   0  0  0  0  0  0  0  0  0  0  0  0
    3.1030   13.9090   -1.2510 C   0  0  0  0  0  0  0  0  0  0  0  0
    2.4940   12.9580   -2.2990 C   0  0  0  0  0  0  0  0  0  0  0  0
    1.3050   12.1880   -1.7170 C   0  0  2  0  0  0  0  0  0  0  0  0
    1.8390   11.3020   -0.5400 C   0  0  0  0  0  0  0  0  0  0  0  0
    0.5107    8.9314   -1.2595 H   0  0  0  0  0  0  0  0  0  0  0  0
   -0.6366    8.8070   -2.6361 H   0  0  0  0  0  0  0  0  0  0  0  0
    0.8750    7.8365   -2.6361 H   0  0  0  0  0  0  0  0  0  0  0  0
    1.0610    9.7666   -4.1433 H   0  0  0  0  0  0  0  0  0  0  0  0
    2.8021   10.5238   -1.7929 H   0  0  0  0  0  0  0  0  0  0  0  0
    2.9867    8.9128   -2.6381 H   0  0  0  0  0  0  0  0  0  0  0  0
    3.5540    9.9378   -4.6891 H   0  0  0  0  0  0  0  0  0  0  0  0
    3.0793   11.5765   -4.0750 H   0  0  0  0  0  0  0  0  0  0  0  0
    4.7125   10.3550   -2.3803 H   0  0  0  0  0  0  0  0  0  0  0  0
    5.5401    9.5292   -5.8552 H   0  0  0  0  0  0  0  0  0  0  0  0
    5.3696   11.2863   -6.1868 H   0  0  0  0  0  0  0  0  0  0  0  0
    6.9971   10.5261   -6.1868 H   0  0  0  0  0  0  0  0  0  0  0  0
    7.4000   10.5801   -2.5523 H   0  0  0  0  0  0  0  0  0  0  0  0
    7.8620    9.5846   -3.9744 H   0  0  0  0  0  0  0  0  0  0  0  0
    8.1796   11.3525   -3.9744 H   0  0  0  0  0  0  0  0  0  0  0  0
    0.4793   11.7379   -3.6894 H   0  0  0  0  0  0  0  0  0  0  0  0
   -1.6649   11.1876   -2.7195 H   0  0  0  0  0  0  0  0  0  0  0  0
   -0.9277   10.1245   -1.5016 H   0  0  0  0  0  0  0  0  0  0  0  0
   -1.9300   12.7574   -1.0206 H   0  0  0  0  0  0  0  0  0  0  0  0
   -0.8779   11.8831    0.0894 H   0  0  0  0  0  0  0  0  0  0  0  0
   -0.9237   14.9355   -2.0890 H   0  0  0  0  0  0  0  0  0  0  0  0
    0.4709   14.4391   -3.1065 H   0  0  0  0  0  0  0  0  0  0  0  0
   -1.0347   13.4594   -3.1065 H   0  0  0  0  0  0  0  0  0  0  0  0
    0.9391   13.3865    0.6432 H   0  0  0  0  0  0  0  0  0  0  0  0
   -1.2903   14.6448    0.3578 H   0  0  0  0  0  0  0  0  0  0  0  0
    0.0203   15.2718    1.4883 H   0  0  0  0  0  0  0  0  0  0  0  0
   -1.2139   17.0780    0.0195 H   0  0  0  0  0  0  0  0  0  0  0  0
    1.8121   15.8143   -2.3347 H   0  0  0  0  0  0  0  0  0  0  0  0
    3.1947   17.4734   -0.1366 H   0  0  0  0  0  0  0  0  0  0  0  0
    3.9985   16.6069   -1.5203 H   0  0  0  0  0  0  0  0  0  0  0  0
    3.8228   19.0427   -1.9167 H   0  0  0  0  0  0  0  0  0  0  0  0
    2.8910   18.0632   -3.1157 H   0  0  0  0  0  0  0  0  0  0  0  0
    1.5617   19.9520   -2.4637 H   0  0  0  0  0  0  0  0  0  0  0  0
    1.3790   19.0850    0.2180 H   0  0  0  0  0  0  0  0  0  0  0  0
   -0.6629   17.1355   -3.3117 H   0  0  0  0  0  0  0  0  0  0  0  0
   -0.3127   18.8355   -3.7743 H   0  0  0  0  0  0  0  0  0  0  0  0
    1.0053   17.6150   -3.7743 H   0  0  0  0  0  0  0  0  0  0  0  0
   -0.7968   19.1378   -0.1800 H   0  0  0  0  0  0  0  0  0  0  0  0
   -0.6888   20.1660   -1.6489 H   0  0  0  0  0  0  0  0  0  0  0  0
   -1.7369   18.7073   -1.6489 H   0  0  0  0  0  0  0  0  0  0  0  0
    2.1073   14.8465    1.7135 H   0  0  0  0  0  0  0  0  0  0  0  0
    3.7281   14.6226    0.9723 H   0  0  0  0  0  0  0  0  0  0  0  0
    2.9569   16.2449    0.9723 H   0  0  0  0  0  0  0  0  0  0  0  0
    3.8277   14.5546   -1.7687 H   0  0  0  0  0  0  0  0  0  0  0  0
    3.5374   13.2514   -0.4836 H   0  0  0  0  0  0  0  0  0  0  0  0
    2.1529   13.5465   -3.1635 H   0  0  0  0  0  0  0  0  0  0  0  0
    3.2640   12.2344   -2.6047 H   0  0  0  0  0  0  0  0  0  0  0  0
    1.5618   11.7619    0.4201 H   0  0  0  0  0  0  0  0  0  0  0  0
    1.3958   10.2975   -0.6069 H   0  0  0  0  0  0  0  0  0  0  0  0
    2.9342   11.2247   -0.6069 H   0  0  0  0  0  0  0  0  0  0  0  0
  1  2  1  0
  2  3  1  0
  3  4  1  0
  4  5  1  0
  5  6  1  0
  6  7  1  0
  7  8  1  0
  7  9  1  0
  2 10  1  0
 10 11  1  0
 11 12  1  0
 12 13  1  0
 13 14  1  6
 13 15  1  0
 15 16  1  0
 16 17  1  0
 17 18  2  0
 18 19  1  0
 19 20  1  0
 20 21  1  0
 21 22  1  0
 22 23  1  0
 22 24  1  0
 24 25  1  0
 24 26  1  0
 19 27  1  0
 27 28  1  1
 27 29  1  0
 29 30  1  0
 30 31  1  0
 31 32  1  1
  7  5  1  0
 31 10  1  0
 31 13  1  0
 27 15  1  0
 24 18  1  0
  1 33  1  0
  1 34  1  0
  1 35  1  0
  2 36  1  6
  3 37  1  0
  3 38  1  0
  4 39  1  0
  4 40  1  0
  5 41  1  1
  8 42  1  0
  8 43  1  0
  8 44  1  0
  9 45  1  0
  9 46  1  0
  9 47  1  0
 10 48  1  6
 11 49  1  0
 11 50  1  0
 12 51  1  0
 12 52  1  0
 14 53  1  0
 14 54  1  0
 14 55  1  0
 15 56  1  1
 16 57  1  0
 16 58  1  0
 17 59  1  0
 19 60  1  6
 20 61  1  0
 20 62  1  0
 21 63  1  0
 21 64  1  0
 22 65  1  6
 23 66  1  0
 25 67  1  0
 25 68  1  0
 25 69  1  0
 26 70  1  0
 26 71  1  0
 26 72  1  0
 28 73  1  0
 28 74  1  0
 28 75  1  0
 29 76  1  0
 29 77  1  0
 30 78  1  0
 30 79  1  0
 32 80  1  0
 32 81  1  0
 32 82  1  0
M  END
>  <meeko>  (8) 
{"is_sidechain": [false], "intermolecular_energy": 2.731, "internal_energy": -0.839}

$$$$
EPH_relaxed_0001_pdb2pqr_Repair_379_r2_0001_out
     RDKit          3D

 82 86  0  0  0  0  0  0  0  0999 V2000
   -0.2700   10.5510   -4.0850 C   0  0  0  0  0  0  0  0  0  0  0  0
    0.9220   10.3630   -3.1420 C   0  0  2  0  0  0  0  0  0  0  0  0
    0.8570    9.0220   -2.3850 C   0  0  0  0  0  0  0  0  0  0  0  0
   -0.5540    8.6440   -1.9230 C   0  0  0  0  0  0  0  0  0  0  0  0
   -0.7820    9.0040   -0.4870 C   0  0  2  0  0  0  0  0  0  0  0  0
   -2.1600    9.0420   -0.0910 O   0  0  0  0  0  0  0  0  0  0  0  0
   -1.4510   10.2920   -0.0430 C   0  0  0  0  0  0  0  0  0  0  0  0
   -1.9330   11.3020   -1.0360 C   0  0  0  0  0  0  0  0  0  0  0  0
   -1.1980   10.7880    1.3460 C   0  0  0  0  0  0  0  0  0  0  0  0
    0.9880   11.5190   -2.1510 C   0  0  1  0  0  0  0  0  0  0  0  0
    2.0300   11.2810   -1.0250 C   0  0  0  0  0  0  0  0  0  0  0  0
    2.6420   12.6640   -0.6830 C   0  0  0  0  0  0  0  0  0  0  0  0
    1.7090   13.6850   -1.3760 C   0  0  1  0  0  0  0  0  0  0  0  0
    0.4960   13.8420   -0.4070 C   0  0  0  0  0  0  0  0  0  0  0  0
    2.3440   15.0680   -1.7340 C   0  0  2  0  0  0  0  0  0  0  0  0
    2.8320   15.8940   -0.5310 C   0  0  0  0  0  0  0  0  0  0  0  0
    1.8230   16.8250    0.0550 C   0  0  0  0  0  0  0  0  0  0  0  0
    0.6730   17.2040   -0.5340 C   0  0  0  0  0  0  0  0  0  0  0  0
    0.3380   16.7600   -1.9640 C   0  0  1  0  0  0  0  0  0  0  0  0
   -0.1670   17.9790   -2.7800 C   0  0  0  0  0  0  0  0  0  0  0  0
   -1.3310   18.6950   -2.1030 C   0  0  0  0  0  0  0  0  0  0  0  0
   -0.9400   19.1720   -0.7060 C   0  0  2  0  0  0  0  0  0  0  0  0
    0.0550   20.1940   -0.8300 O   0  0  0  0  0  0  0  0  0  0  0  0
   -0.4070   18.0310    0.2040 C   0  0  0  0  0  0  0  0  0  0  0  0
   -1.5710   17.0820    0.5840 C   0  0  0  0  0  0  0  0  0  0  0  0
    0.0840   18.6700    1.5320 C   0  0  0  0  0  0  0  0  0  0  0  0
    1.4730   15.9460   -2.7220 C   0  0  1  0  0  0  0  0  0  0  0  0
    2.4550   16.9310   -3.4260 C   0  0  0  0  0  0  0  0  0  0  0  0
    0.8130   15.0850   -3.8630 C   0  0  0  0  0  0  0  0  0  0  0  0
    0.3130   13.6800   -3.4730 C   0  0  0  0  0  0  0  0  0  0  0  0
    1.3900   12.9090   -2.7050 C   0  0  2  0  0  0  0  0  0  0  0  0
    2.6160   12.7160   -3.6620 C   0  0  0  0  0  0  0  0  0  0  0  0
   -1.1862   10.6955   -3.4936 H   0  0  0  0  0  0  0  0  0  0  0  0
   -0.1001   11.4334   -4.7194 H   0  0  0  0  0  0  0  0  0  0  0  0
   -0.3799    9.6591   -4.7194 H   0  0  0  0  0  0  0  0  0  0  0  0
    1.8331   10.3499   -3.7582 H   0  0  0  0  0  0  0  0  0  0  0  0
    1.2287    8.2290   -3.0506 H   0  0  0  0  0  0  0  0  0  0  0  0
    1.4728    9.1331   -1.4803 H   0  0  0  0  0  0  0  0  0  0  0  0
   -1.2877    9.1776   -2.5451 H   0  0  0  0  0  0  0  0  0  0  0  0
   -0.6680    7.5548   -2.0256 H   0  0  0  0  0  0  0  0  0  0  0  0
    0.1628    8.5240   -0.1920 H   0  0  0  0  0  0  0  0  0  0  0  0
   -2.3476   12.1707   -0.5036 H   0  0  0  0  0  0  0  0  0  0  0  0
   -1.0923   11.6257   -1.6672 H   0  0  0  0  0  0  0  0  0  0  0  0
   -2.7135   10.8521   -1.6672 H   0  0  0  0  0  0  0  0  0  0  0  0
   -1.5734   10.0520    2.0722 H   0  0  0  0  0  0  0  0  0  0  0  0
   -0.1172   10.9302    1.4934 H   0  0  0  0  0  0  0  0  0  0  0  0
   -1.7174   11.7464    1.4934 H   0  0  0  0  0  0  0  0  0  0  0  0
   -0.0600   11.5363   -1.8173 H   0  0  0  0  0  0  0  0  0  0  0  0
    1.5387   10.8543   -0.1381 H   0  0  0  0  0  0  0  0  0  0  0  0
    2.8078   10.5740   -1.3493 H   0  0  0  0  0  0  0  0  0  0  0  0
    2.6541   12.8251    0.4051 H   0  0  0  0  0  0  0  0  0  0  0  0
    3.6846   12.7544   -1.0218 H   0  0  0  0  0  0  0  0  0  0  0  0
    0.8497   13.7962    0.6336 H   0  0  0  0  0  0  0  0  0  0  0  0
    0.0069   14.8109   -0.5858 H   0  0  0  0  0  0  0  0  0  0  0  0
   -0.2237   13.0295   -0.5858 H   0  0  0  0  0  0  0  0  0  0  0  0
    3.2511   14.7745   -2.2827 H   0  0  0  0  0  0  0  0  0  0  0  0
    3.1463   15.1938    0.2570 H   0  0  0  0  0  0  0  0  0  0  0  0
    3.6479   16.5280   -0.9083 H   0  0  0  0  0  0  0  0  0  0  0  0
    2.0371   17.2363    1.0525 H   0  0  0  0  0  0  0  0  0  0  0  0
   -0.4656   16.0148   -1.8700 H   0  0  0  0  0  0  0  0  0  0  0  0
    0.6629   18.6909   -2.9002 H   0  0  0  0  0  0  0  0  0  0  0  0
   -0.5243   17.6056   -3.7510 H   0  0  0  0  0  0  0  0  0  0  0  0
   -1.6223   19.5637   -2.7116 H   0  0  0  0  0  0  0  0  0  0  0  0
   -2.1709   17.9907   -2.0113 H   0  0  0  0  0  0  0  0  0  0  0  0
   -1.8492   19.5591   -0.2227 H   0  0  0  0  0  0  0  0  0  0  0  0
    0.6780   20.0880   -0.0920 H   0  0  0  0  0  0  0  0  0  0  0  0
   -1.6493   17.0181    1.6793 H   0  0  0  0  0  0  0  0  0  0  0  0
   -2.5126   17.4731    0.1712 H   0  0  0  0  0  0  0  0  0  0  0  0
   -1.3776   16.0809    0.1712 H   0  0  0  0  0  0  0  0  0  0  0  0
   -0.3403   18.1178    2.3835 H   0  0  0  0  0  0  0  0  0  0  0  0
    1.1822   18.6251    1.5765 H   0  0  0  0  0  0  0  0  0  0  0  0
   -0.2422   19.7196    1.5765 H   0  0  0  0  0  0  0  0  0  0  0  0
    3.0166   17.4944   -2.6663 H   0  0  0  0  0  0  0  0  0  0  0  0
    3.1567   16.3627   -4.0542 H   0  0  0  0  0  0  0  0  0  0  0  0
    1.8846   17.6310   -4.0542 H   0  0  0  0  0  0  0  0  0  0  0  0
   -0.0485   15.6493   -4.2496 H   0  0  0  0  0  0  0  0  0  0  0  0
    1.6165   14.9118   -4.5940 H   0  0  0  0  0  0  0  0  0  0  0  0
   -0.5801   13.7791   -2.8386 H   0  0  0  0  0  0  0  0  0  0  0  0
    0.0726   13.1255   -4.3921 H   0  0  0  0  0  0  0  0  0  0  0  0
    3.5284   12.5724   -3.0646 H   0  0  0  0  0  0  0  0  0  0  0  0
    2.4504   11.8329   -4.2965 H   0  0  0  0  0  0  0  0  0  0  0  0
    2.7297   13.6073   -4.2965 H   0  0  0  0  0  0  0  0  0  0  0  0
  1  2  1  0
  2  3  1  0
  3  4  1  0
  4  5  1  0
  5  6  1  0
  6  7  1  0
  7  8  1  0
  7  9  1  0
  2 10  1  0
 10 11  1  0
 11 12  1  0
 12 13  1  0
 13 14  1  1
 13 15  1  0
 15 16  1  0
 16 17  1  0
 17 18  2  0
 18 19  1  0
 19 20  1  0
 20 21  1  0
 21 22  1  0
 22 23  1  0
 22 24  1  0
 24 25  1  0
 24 26  1  0
 19 27  1  0
 27 28  1  6
 27 29  1  0
 29 30  1  0
 30 31  1  0
 31 32  1  6
  7  5  1  0
 31 10  1  0
 31 13  1  0
 27 15  1  0
 24 18  1  0
  1 33  1  0
  1 34  1  0
  1 35  1  0
  2 36  1  6
  3 37  1  0
  3 38  1  0
  4 39  1  0
  4 40  1  0
  5 41  1  1
  8 42  1  0
  8 43  1  0
  8 44  1  0
  9 45  1  0
  9 46  1  0
  9 47  1  0
 10 48  1  1
 11 49  1  0
 11 50  1  0
 12 51  1  0
 12 52  1  0
 14 53  1  0
 14 54  1  0
 14 55  1  0
 15 56  1  6
 16 57  1  0
 16 58  1  0
 17 59  1  0
 19 60  1  1
 20 61  1  0
 20 62  1  0
 21 63  1  0
 21 64  1  0
 22 65  1  1
 23 66  1  0
 25 67  1  0
 25 68  1  0
 25 69  1  0
 26 70  1  0
 26 71  1  0
 26 72  1  0
 28 73  1  0
 28 74  1  0
 28 75  1  0
 29 76  1  0
 29 77  1  0
 30 78  1  0
 30 79  1  0
 32 80  1  0
 32 81  1  0
 32 82  1  0
M  END
>  <meeko>  (9) 
{"is_sidechain": [false], "intermolecular_energy": 2.731, "internal_energy": -0.839}

$$$$
EPH_relaxed_0001_pdb2pqr_Repair_379_r2_0001_out
     RDKit          3D

 82 86  0  0  0  0  0  0  0  0999 V2000
    2.5670   19.4450   -0.6320 C   0  0  0  0  0  0  0  0  0  0  0  0
    2.5940   18.5340   -1.8630 C   0  0  2  0  0  0  0  0  0  0  0  0
    1.2800   18.6050   -2.6670 C   0  0  0  0  0  0  0  0  0  0  0  0
    0.3440   19.7300   -2.2180 C   0  0  0  0  0  0  0  0  0  0  0  0
   -0.9400   19.1940   -1.6610 C   0  0  2  0  0  0  0  0  0  0  0  0
   -1.9070   20.1940   -1.3160 O   0  0  0  0  0  0  0  0  0  0  0  0
   -1.3870   19.4130   -0.2280 C   0  0  0  0  0  0  0  0  0  0  0  0
   -0.5530   20.1940    0.7390 C   0  0  0  0  0  0  0  0  0  0  0  0
   -2.3830   18.4650    0.3640 C   0  0  0  0  0  0  0  0  0  0  0  0
    2.8680   17.0960   -1.4390 C   0  0  1  0  0  0  0  0  0  0  0  0
    3.6280   17.0060   -0.0880 C   0  0  0  0  0  0  0  0  0  0  0  0
    3.0980   15.7440    0.6400 C   0  0  0  0  0  0  0  0  0  0  0  0
    2.3050   14.9740   -0.4410 C   0  0  1  0  0  0  0  0  0  0  0  0
    3.3880   14.2010   -1.2580 C   0  0  0  0  0  0  0  0  0  0  0  0
    1.1810   14.0180    0.0750 C   0  0  2  0  0  0  0  0  0  0  0  0
    1.6670   12.8560    0.9580 C   0  0  0  0  0  0  0  0  0  0  0  0
    2.0100   11.6000    0.2280 C   0  0  0  0  0  0  0  0  0  0  0  0
    1.6650   11.3140   -1.0420 C   0  0  0  0  0  0  0  0  0  0  0  0
    0.7680   12.2640   -1.8460 C   0  0  1  0  0  0  0  0  0  0  0  0
   -0.3410   11.4480   -2.5600 C   0  0  0  0  0  0  0  0  0  0  0  0
    0.2220   10.3150   -3.4130 C   0  0  0  0  0  0  0  0  0  0  0  0
    1.0600    9.3600   -2.5660 C   0  0  2  0  0  0  0  0  0  0  0  0
    0.1990    8.6870   -1.6420 O   0  0  0  0  0  0  0  0  0  0  0  0
    2.2050   10.0710   -1.7910 C   0  0  0  0  0  0  0  0  0  0  0  0
    3.2940   10.5400   -2.7870 C   0  0  0  0  0  0  0  0  0  0  0  0
    2.8810    9.0220   -0.8690 C   0  0  0  0  0  0  0  0  0  0  0  0
    0.1910   13.5130   -1.0510 C   0  0  1  0  0  0  0  0  0  0  0  0
   -1.1370   13.1190   -0.3330 C   0  0  0  0  0  0  0  0  0  0  0  0
   -0.1790   14.6490   -2.0760 C   0  0  0  0  0  0  0  0  0  0  0  0
    0.9430   15.6340   -2.4560 C   0  0  0  0  0  0  0  0  0  0  0  0
    1.6430   16.1770   -1.2060 C   0  0  2  0  0  0  0  0  0  0  0  0
    0.5830   16.9780   -0.3750 C   0  0  0  0  0  0  0  0  0  0  0  0
    2.5852   18.8299    0.2798 H   0  0  0  0  0  0  0  0  0  0  0  0
    3.4459   20.1063   -0.6459 H   0  0  0  0  0  0  0  0  0  0  0  0
    1.6504   20.0530   -0.6459 H   0  0  0  0  0  0  0  0  0  0  0  0
    3.4022   18.8886   -2.5196 H   0  0  0  0  0  0  0  0  0  0  0  0
    1.5293   18.7628   -3.7267 H   0  0  0  0  0  0  0  0  0  0  0  0
    0.7479   17.6573   -2.4977 H   0  0  0  0  0  0  0  0  0  0  0  0
    0.8482   20.3249   -1.4422 H   0  0  0  0  0  0  0  0  0  0  0  0
    0.1052   20.3482   -3.0960 H   0  0  0  0  0  0  0  0  0  0  0  0
   -0.8548   18.2864   -2.2766 H   0  0  0  0  0  0  0  0  0  0  0  0
   -0.8377   19.9274    1.7675 H   0  0  0  0  0  0  0  0  0  0  0  0
    0.5097   19.9587    0.5801 H   0  0  0  0  0  0  0  0  0  0  0  0
   -0.7181   21.2699    0.5801 H   0  0  0  0  0  0  0  0  0  0  0  0
   -2.3299   18.5156    1.4616 H   0  0  0  0  0  0  0  0  0  0  0  0
   -3.3947   18.7420    0.0327 H   0  0  0  0  0  0  0  0  0  0  0  0
   -2.1563   17.4409    0.0327 H   0  0  0  0  0  0  0  0  0  0  0  0
    3.4361   16.7509   -2.3154 H   0  0  0  0  0  0  0  0  0  0  0  0
    4.7094   16.9139   -0.2671 H   0  0  0  0  0  0  0  0  0  0  0  0
    3.4647   17.9094    0.5180 H   0  0  0  0  0  0  0  0  0  0  0  0
    3.9322   15.1345    1.0175 H   0  0  0  0  0  0  0  0  0  0  0  0
    2.4773   15.9957    1.5125 H   0  0  0  0  0  0  0  0  0  0  0  0
    4.0840   13.7042   -0.5661 H   0  0  0  0  0  0  0  0  0  0  0  0
    2.8997   13.4461   -1.8918 H   0  0  0  0  0  0  0  0  0  0  0  0
    3.9433   14.9081   -1.8918 H   0  0  0  0  0  0  0  0  0  0  0  0
    0.6002   14.6752    0.7389 H   0  0  0  0  0  0  0  0  0  0  0  0
    2.5651   13.1916    1.4973 H   0  0  0  0  0  0  0  0  0  0  0  0
    0.8247   12.6033    1.6187 H   0  0  0  0  0  0  0  0  0  0  0  0
    2.5940   10.8441    0.7735 H   0  0  0  0  0  0  0  0  0  0  0  0
    1.4211   12.7396   -2.5925 H   0  0  0  0  0  0  0  0  0  0  0  0
   -1.0077   11.0178   -1.7982 H   0  0  0  0  0  0  0  0  0  0  0  0
   -0.8803   12.1336   -3.2302 H   0  0  0  0  0  0  0  0  0  0  0  0
   -0.6108    9.7577   -3.8667 H   0  0  0  0  0  0  0  0  0  0  0  0
    0.8645   10.7485   -4.1935 H   0  0  0  0  0  0  0  0  0  0  0  0
    1.5416    8.6474   -3.2518 H   0  0  0  0  0  0  0  0  0  0  0  0
   -0.7130    8.7920   -1.9600 H   0  0  0  0  0  0  0  0  0  0  0  0
    4.1645   10.9149   -2.2287 H   0  0  0  0  0  0  0  0  0  0  0  0
    3.6008    9.6942   -3.4199 H   0  0  0  0  0  0  0  0  0  0  0  0
    2.8903   11.3440   -3.4199 H   0  0  0  0  0  0  0  0  0  0  0  0
    2.7069    9.2921    0.1830 H   0  0  0  0  0  0  0  0  0  0  0  0
    2.4527    8.0286   -1.0682 H   0  0  0  0  0  0  0  0  0  0  0  0
    3.9626    9.0016   -1.0682 H   0  0  0  0  0  0  0  0  0  0  0  0
   -0.9915   13.1622    0.7565 H   0  0  0  0  0  0  0  0  0  0  0  0
   -1.9333   13.8196   -0.6246 H   0  0  0  0  0  0  0  0  0  0  0  0
   -1.4224   12.0975   -0.6246 H   0  0  0  0  0  0  0  0  0  0  0  0
   -0.5230   14.1634   -3.0011 H   0  0  0  0  0  0  0  0  0  0  0  0
   -0.9384   15.2603   -1.5665 H   0  0  0  0  0  0  0  0  0  0  0  0
    1.6810   15.1137   -3.0843 H   0  0  0  0  0  0  0  0  0  0  0  0
    0.4981   16.4781   -3.0033 H   0  0  0  0  0  0  0  0  0  0  0  0
    0.7738   16.8339    0.6987 H   0  0  0  0  0  0  0  0  0  0  0  0
    0.6571   18.0478   -0.6202 H   0  0  0  0  0  0  0  0  0  0  0  0
   -0.4259   16.6146   -0.6202 H   0  0  0  0  0  0  0  0  0  0  0  0
  1  2  1  0
  2  3  1  0
  3  4  1  0
  4  5  1  0
  5  6  1  0
  6  7  1  0
  7  8  1  0
  7  9  1  0
  2 10  1  0
 10 11  1  0
 11 12  1  0
 12 13  1  0
 13 14  1  6
 13 15  1  0
 15 16  1  0
 16 17  1  0
 17 18  2  0
 18 19  1  0
 19 20  1  0
 20 21  1  0
 21 22  1  0
 22 23  1  0
 22 24  1  0
 24 25  1  0
 24 26  1  0
 19 27  1  0
 27 28  1  1
 27 29  1  0
 29 30  1  0
 30 31  1  0
 31 32  1  1
  7  5  1  0
 31 10  1  0
 31 13  1  0
 27 15  1  0
 24 18  1  0
  1 33  1  0
  1 34  1  0
  1 35  1  0
  2 36  1  6
  3 37  1  0
  3 38  1  0
  4 39  1  0
  4 40  1  0
  5 41  1  6
  8 42  1  0
  8 43  1  0
  8 44  1  0
  9 45  1  0
  9 46  1  0
  9 47  1  0
 10 48  1  6
 11 49  1  0
 11 50  1  0
 12 51  1  0
 12 52  1  0
 14 53  1  0
 14 54  1  0
 14 55  1  0
 15 56  1  1
 16 57  1  0
 16 58  1  0
 17 59  1  0
 19 60  1  6
 20 61  1  0
 20 62  1  0
 21 63  1  0
 21 64  1  0
 22 65  1  6
 23 66  1  0
 25 67  1  0
 25 68  1  0
 25 69  1  0
 26 70  1  0
 26 71  1  0
 26 72  1  0
 28 73  1  0
 28 74  1  0
 28 75  1  0
 29 76  1  0
 29 77  1  0
 30 78  1  0
 30 79  1  0
 32 80  1  0
 32 81  1  0
 32 82  1  0
M  END
>  <meeko>  (10) 
{"is_sidechain": [false], "intermolecular_energy": 2.731, "internal_energy": -0.839}

$$$$
EPH_relaxed_0001_pdb2pqr_Repair_379_r2_0001_out
     RDKit          3D

 82 86  0  0  0  0  0  0  0  0999 V2000
    1.4490   19.6310   -2.1240 C   0  0  0  0  0  0  0  0  0  0  0  0
    1.4720   19.3980   -0.6100 C   0  0  2  0  0  0  0  0  0  0  0  0
    2.8430   19.7380    0.0090 C   0  0  0  0  0  0  0  0  0  0  0  0
    2.8600   19.6760    1.5380 C   0  0  0  0  0  0  0  0  0  0  0  0
    4.2580   19.6230    2.0760 C   0  0  2  0  0  0  0  0  0  0  0  0
    4.5670   18.4400    2.8240 O   0  0  0  0  0  0  0  0  0  0  0  0
    4.5880   19.6770    3.5550 C   0  0  0  0  0  0  0  0  0  0  0  0
    3.5140   19.7890    4.5910 C   0  0  0  0  0  0  0  0  0  0  0  0
    5.9610   20.1110    3.9670 C   0  0  0  0  0  0  0  0  0  0  0  0
    1.1060   17.9510   -0.3020 C   0  0  1  0  0  0  0  0  0  0  0  0
   -0.2360   17.8260    0.4680 C   0  0  0  0  0  0  0  0  0  0  0  0
   -0.9170   16.5250   -0.0300 C   0  0  0  0  0  0  0  0  0  0  0  0
    0.1890   15.7800   -0.8120 C   0  0  1  0  0  0  0  0  0  0  0  0
    1.0410   15.0640    0.2820 C   0  0  0  0  0  0  0  0  0  0  0  0
   -0.2960   14.7800   -1.9120 C   0  0  2  0  0  0  0  0  0  0  0  0
   -1.1300   13.5950   -1.3940 C   0  0  0  0  0  0  0  0  0  0  0  0
   -0.3490   12.3770   -1.0280 C   0  0  0  0  0  0  0  0  0  0  0  0
    0.9280   12.1330   -1.3750 C   0  0  0  0  0  0  0  0  0  0  0  0
    1.6910   13.0930   -2.2970 C   0  0  1  0  0  0  0  0  0  0  0  0
    2.4300   12.2800   -3.3930 C   0  0  0  0  0  0  0  0  0  0  0  0
    3.3290   11.1940   -2.8090 C   0  0  0  0  0  0  0  0  0  0  0  0
    2.5240   10.2260   -1.9460 C   0  0  2  0  0  0  0  0  0  0  0  0
    1.6230    9.4990   -2.7860 O   0  0  0  0  0  0  0  0  0  0  0  0
    1.7290   10.9330   -0.8130 C   0  0  0  0  0  0  0  0  0  0  0  0
    2.7110   11.4630    0.2610 C   0  0  0  0  0  0  0  0  0  0  0  0
    0.8520    9.8630   -0.1070 C   0  0  0  0  0  0  0  0  0  0  0  0
    0.8440   14.2970   -2.8970 C   0  0  1  0  0  0  0  0  0  0  0  0
    0.1360   13.8460   -4.2110 C   0  0  0  0  0  0  0  0  0  0  0  0
    1.8230   15.4640   -3.2980 C   0  0  0  0  0  0  0  0  0  0  0  0
    2.1700   16.4870   -2.2000 C   0  0  0  0  0  0  0  0  0  0  0  0
    0.9030   16.9970   -1.5060 C   0  0  2  0  0  0  0  0  0  0  0  0
    0.0360   17.7410   -2.5770 C   0  0  0  0  0  0  0  0  0  0  0  0
    1.3428   20.7067   -2.3279 H   0  0  0  0  0  0  0  0  0  0  0  0
    2.3876   19.2650   -2.5656 H   0  0  0  0  0  0  0  0  0  0  0  0
    0.6000   19.0886   -2.5656 H   0  0  0  0  0  0  0  0  0  0  0  0
    0.7299   20.0735   -0.1595 H   0  0  0  0  0  0  0  0  0  0  0  0
    3.5848   19.0227   -0.3758 H   0  0  0  0  0  0  0  0  0  0  0  0
    3.0747   20.7756   -0.2733 H   0  0  0  0  0  0  0  0  0  0  0  0
    2.3585   20.5703    1.9365 H   0  0  0  0  0  0  0  0  0  0  0  0
    2.3381   18.7591    1.8495 H   0  0  0  0  0  0  0  0  0  0  0  0
    4.6359   20.1937    1.2149 H   0  0  0  0  0  0  0  0  0  0  0  0
    3.9650   19.7420    5.5932 H   0  0  0  0  0  0  0  0  0  0  0  0
    2.9869   20.7470    4.4707 H   0  0  0  0  0  0  0  0  0  0  0  0
    2.8006   18.9604    4.4707 H   0  0  0  0  0  0  0  0  0  0  0  0
    6.0251   20.1313    5.0649 H   0  0  0  0  0  0  0  0  0  0  0  0
    6.7038   19.4039    3.5693 H   0  0  0  0  0  0  0  0  0  0  0  0
    6.1624   21.1166    3.5693 H   0  0  0  0  0  0  0  0  0  0  0  0
    1.9978   17.6520    0.2683 H   0  0  0  0  0  0  0  0  0  0  0  0
   -0.0478   17.7649    1.5501 H   0  0  0  0  0  0  0  0  0  0  0  0
   -0.8775   18.7015    0.2890 H   0  0  0  0  0  0  0  0  0  0  0  0
   -1.2665   15.9200    0.8196 H   0  0  0  0  0  0  0  0  0  0  0  0
   -1.8016   16.7289   -0.6512 H   0  0  0  0  0  0  0  0  0  0  0  0
    0.6846   15.3635    1.2786 H   0  0  0  0  0  0  0  0  0  0  0  0
    0.9416   13.9743    0.1692 H   0  0  0  0  0  0  0  0  0  0  0  0
    2.0973   15.3495    0.1692 H   0  0  0  0  0  0  0  0  0  0  0  0
   -0.9883   15.3973   -2.5033 H   0  0  0  0  0  0  0  0  0  0  0  0
   -1.6769   13.9294   -0.5001 H   0  0  0  0  0  0  0  0  0  0  0  0
   -1.7853   13.2975   -2.2260 H   0  0  0  0  0  0  0  0  0  0  0  0
   -0.8608   11.6139   -0.4232 H   0  0  0  0  0  0  0  0  0  0  0  0
    2.4226   13.6110   -1.6595 H   0  0  0  0  0  0  0  0  0  0  0  0
    1.6818   11.8056   -4.0450 H   0  0  0  0  0  0  0  0  0  0  0  0
    3.0698   12.9782   -3.9526 H   0  0  0  0  0  0  0  0  0  0  0  0
    3.8008   10.6363   -3.6314 H   0  0  0  0  0  0  0  0  0  0  0  0
    4.0944   11.6721   -2.1801 H   0  0  0  0  0  0  0  0  0  0  0  0
    3.2384    9.5502   -1.4531 H   0  0  0  0  0  0  0  0  0  0  0  0
    2.0130    9.4650   -3.6760 H   0  0  0  0  0  0  0  0  0  0  0  0
    2.3106   11.2469    1.2625 H   0  0  0  0  0  0  0  0  0  0  0  0
    3.6865   10.9689    0.1417 H   0  0  0  0  0  0  0  0  0  0  0  0
    2.8333   12.5496    0.1417 H   0  0  0  0  0  0  0  0  0  0  0  0
    0.9438    9.9750    0.9834 H   0  0  0  0  0  0  0  0  0  0  0  0
   -0.1991    9.9975   -0.4022 H   0  0  0  0  0  0  0  0  0  0  0  0
    1.1902    8.8588   -0.4022 H   0  0  0  0  0  0  0  0  0  0  0  0
   -0.7676   13.2704   -3.9617 H   0  0  0  0  0  0  0  0  0  0  0  0
   -0.1445   14.7322   -4.7992 H   0  0  0  0  0  0  0  0  0  0  0  0
    0.8206   13.2172   -4.7992 H   0  0  0  0  0  0  0  0  0  0  0  0
    2.7645   15.0070   -3.6367 H   0  0  0  0  0  0  0  0  0  0  0  0
    1.2865   16.0383   -4.0676 H   0  0  0  0  0  0  0  0  0  0  0  0
    2.8208   16.0075   -1.4540 H   0  0  0  0  0  0  0  0  0  0  0  0
    2.6830   17.3413   -2.6658 H   0  0  0  0  0  0  0  0  0  0  0  0
   -0.7053   18.3771   -2.0712 H   0  0  0  0  0  0  0  0  0  0  0  0
    0.6870   18.3658   -3.2061 H   0  0  0  0  0  0  0  0  0  0  0  0
   -0.4828   17.0027   -3.2061 H   0  0  0  0  0  0  0  0  0  0  0  0
  1  2  1  0
  2  3  1  0
  3  4  1  0
  4  5  1  0
  5  6  1  0
  6  7  1  0
  7  8  1  0
  7  9  1  0
  2 10  1  0
 10 11  1  0
 11 12  1  0
 12 13  1  0
 13 14  1  1
 13 15  1  0
 15 16  1  0
 16 17  1  0
 17 18  2  0
 18 19  1  0
 19 20  1  0
 20 21  1  0
 21 22  1  0
 22 23  1  0
 22 24  1  0
 24 25  1  0
 24 26  1  0
 19 27  1  0
 27 28  1  6
 27 29  1  0
 29 30  1  0
 30 31  1  0
 31 32  1  6
  7  5  1  0
 31 10  1  0
 31 13  1  0
 27 15  1  0
 24 18  1  0
  1 33  1  0
  1 34  1  0
  1 35  1  0
  2 36  1  1
  3 37  1  0
  3 38  1  0
  4 39  1  0
  4 40  1  0
  5 41  1  6
  8 42  1  0
  8 43  1  0
  8 44  1  0
  9 45  1  0
  9 46  1  0
  9 47  1  0
 10 48  1  1
 11 49  1  0
 11 50  1  0
 12 51  1  0
 12 52  1  0
 14 53  1  0
 14 54  1  0
 14 55  1  0
 15 56  1  6
 16 57  1  0
 16 58  1  0
 17 59  1  0
 19 60  1  1
 20 61  1  0
 20 62  1  0
 21 63  1  0
 21 64  1  0
 22 65  1  1
 23 66  1  0
 25 67  1  0
 25 68  1  0
 25 69  1  0
 26 70  1  0
 26 71  1  0
 26 72  1  0
 28 73  1  0
 28 74  1  0
 28 75  1  0
 29 76  1  0
 29 77  1  0
 30 78  1  0
 30 79  1  0
 32 80  1  0
 32 81  1  0
 32 82  1  0
M  END
>  <meeko>  (11) 
{"is_sidechain": [false], "intermolecular_energy": 2.731, "internal_energy": -0.839}

$$$$
EPH_relaxed_0001_pdb2pqr_Repair_379_r2_0001_out
     RDKit          3D

 82 86  0  0  0  0  0  0  0  0999 V2000
   -0.9210   16.3940   -5.8780 C   0  0  0  0  0  0  0  0  0  0  0  0
    0.1800   15.6970   -6.6820 C   0  0  2  0  0  0  0  0  0  0  0  0
   -0.2150   15.5000   -8.1590 C   0  0  0  0  0  0  0  0  0  0  0  0
    0.4380   16.5070   -9.1100 C   0  0  0  0  0  0  0  0  0  0  0  0
    1.8440   16.1150   -9.4510 C   0  0  2  0  0  0  0  0  0  0  0  0
    2.3420   16.6750  -10.6730 O   0  0  0  0  0  0  0  0  0  0  0  0
    2.2060   15.2450  -10.6400 C   0  0  0  0  0  0  0  0  0  0  0  0
    1.1560   14.7130  -11.5650 C   0  0  0  0  0  0  0  0  0  0  0  0
    3.5120   14.5150  -10.6220 C   0  0  0  0  0  0  0  0  0  0  0  0
    0.5130   14.3510   -6.0480 C   0  0  1  0  0  0  0  0  0  0  0  0
    1.7380   13.6660   -6.7110 C   0  0  0  0  0  0  0  0  0  0  0  0
    2.4920   12.9120   -5.5850 C   0  0  0  0  0  0  0  0  0  0  0  0
    1.5090   12.9100   -4.3910 C   0  0  1  0  0  0  0  0  0  0  0  0
    0.5220   11.7380   -4.6860 C   0  0  0  0  0  0  0  0  0  0  0  0
    2.1490   12.7820   -2.9700 C   0  0  2  0  0  0  0  0  0  0  0  0
    2.9150   11.4720   -2.7140 C   0  0  0  0  0  0  0  0  0  0  0  0
    2.1010   10.3600   -2.1410 C   0  0  0  0  0  0  0  0  0  0  0  0
    0.8850   10.4890   -1.5790 C   0  0  0  0  0  0  0  0  0  0  0  0
    0.2480   11.8710   -1.3890 C   0  0  1  0  0  0  0  0  0  0  0  0
   -0.3280   11.9840    0.0470 C   0  0  0  0  0  0  0  0  0  0  0  0
   -1.2890   10.8470    0.3830 C   0  0  0  0  0  0  0  0  0  0  0  0
   -0.6020    9.4920    0.2390 C   0  0  2  0  0  0  0  0  0  0  0  0
    0.4130    9.3800    1.2420 O   0  0  0  0  0  0  0  0  0  0  0  0
    0.0260    9.2690   -1.1660 C   0  0  0  0  0  0  0  0  0  0  0  0
   -1.0990    9.0890   -2.2150 C   0  0  0  0  0  0  0  0  0  0  0  0
    0.8070    7.9270   -1.1320 C   0  0  0  0  0  0  0  0  0  0  0  0
    1.1580   13.1140   -1.7810 C   0  0  1  0  0  0  0  0  0  0  0  0
    2.0440   13.5290   -0.5660 C   0  0  0  0  0  0  0  0  0  0  0  0
    0.2340   14.3480   -2.0990 C   0  0  0  0  0  0  0  0  0  0  0  0
   -0.2680   14.4850   -3.5490 C   0  0  0  0  0  0  0  0  0  0  0  0
    0.8870   14.3460   -4.5450 C   0  0  2  0  0  0  0  0  0  0  0  0
    1.8860   15.5250   -4.2860 C   0  0  0  0  0  0  0  0  0  0  0  0
   -0.7245   16.2696   -4.8029 H   0  0  0  0  0  0  0  0  0  0  0  0
   -0.9343   17.4654   -6.1268 H   0  0  0  0  0  0  0  0  0  0  0  0
   -1.8951   15.9477   -6.1268 H   0  0  0  0  0  0  0  0  0  0  0  0
    1.0667   16.3477   -6.6618 H   0  0  0  0  0  0  0  0  0  0  0  0
    0.0844   14.4872   -8.4665 H   0  0  0  0  0  0  0  0  0  0  0  0
   -1.3022   15.6541   -8.2245 H   0  0  0  0  0  0  0  0  0  0  0  0
   -0.1528   16.5575  -10.0365 H   0  0  0  0  0  0  0  0  0  0  0  0
    0.4666   17.4851   -8.6074 H   0  0  0  0  0  0  0  0  0  0  0  0
    2.1103   16.0554   -8.3854 H   0  0  0  0  0  0  0  0  0  0  0  0
    0.3272   14.2931  -10.9761 H   0  0  0  0  0  0  0  0  0  0  0  0
    0.7787   15.5287  -12.1993 H   0  0  0  0  0  0  0  0  0  0  0  0
    1.5906   13.9263  -12.1993 H   0  0  0  0  0  0  0  0  0  0  0  0
    3.8211   14.3422   -9.5806 H   0  0  0  0  0  0  0  0  0  0  0  0
    3.3993   13.5491  -11.1361 H   0  0  0  0  0  0  0  0  0  0  0  0
    4.2757   15.1171  -11.1361 H   0  0  0  0  0  0  0  0  0  0  0  0
   -0.4460   13.8335   -6.1985 H   0  0  0  0  0  0  0  0  0  0  0  0
    1.4039   12.9577   -7.4835 H   0  0  0  0  0  0  0  0  0  0  0  0
    2.3905   14.4069   -7.1961 H   0  0  0  0  0  0  0  0  0  0  0  0
    2.7270   11.8835   -5.8963 H   0  0  0  0  0  0  0  0  0  0  0  0
    3.4517   13.3877   -5.3345 H   0  0  0  0  0  0  0  0  0  0  0  0
    0.1638   11.3126   -3.7369 H   0  0  0  0  0  0  0  0  0  0  0  0
   -0.3338   12.1161   -5.2645 H   0  0  0  0  0  0  0  0  0  0  0  0
    1.0402   10.9590   -5.2645 H   0  0  0  0  0  0  0  0  0  0  0  0
    2.9110   13.5753   -2.9823 H   0  0  0  0  0  0  0  0  0  0  0  0
    3.3322   11.1292   -3.6723 H   0  0  0  0  0  0  0  0  0  0  0  0
    3.6804   11.7089   -1.9604 H   0  0  0  0  0  0  0  0  0  0  0  0
    2.5317    9.3487   -2.1815 H   0  0  0  0  0  0  0  0  0  0  0  0
   -0.5682   11.9324   -2.1239 H   0  0  0  0  0  0  0  0  0  0  0  0
    0.5060   11.9644    0.7640 H   0  0  0  0  0  0  0  0  0  0  0  0
   -0.8917   12.9266    0.1075 H   0  0  0  0  0  0  0  0  0  0  0  0
   -1.6383   10.9652    1.4193 H   0  0  0  0  0  0  0  0  0  0  0  0
   -2.1377   10.8865   -0.3157 H   0  0  0  0  0  0  0  0  0  0  0  0
   -1.3727    8.7173    0.3651 H   0  0  0  0  0  0  0  0  0  0  0  0
    0.7440    8.4660    1.2250 H   0  0  0  0  0  0  0  0  0  0  0  0
   -2.0590    8.9354   -1.7004 H   0  0  0  0  0  0  0  0  0  0  0  0
   -1.1604    9.9887   -2.8448 H   0  0  0  0  0  0  0  0  0  0  0  0
   -0.8766    8.2150   -2.8448 H   0  0  0  0  0  0  0  0  0  0  0  0
    0.9800    7.6298   -0.0871 H   0  0  0  0  0  0  0  0  0  0  0  0
    0.2208    7.1486   -1.6424 H   0  0  0  0  0  0  0  0  0  0  0  0
    1.7734    8.0521   -1.6424 H   0  0  0  0  0  0  0  0  0  0  0  0
    1.5208   13.2839    0.3700 H   0  0  0  0  0  0  0  0  0  0  0  0
    2.9990   12.9845   -0.6056 H   0  0  0  0  0  0  0  0  0  0  0  0
    2.2370   14.6112   -0.6056 H   0  0  0  0  0  0  0  0  0  0  0  0
   -0.6488   14.2795   -1.4464 H   0  0  0  0  0  0  0  0  0  0  0  0
    0.8660   15.2320   -1.9287 H   0  0  0  0  0  0  0  0  0  0  0  0
   -1.0113   13.6990   -3.7481 H   0  0  0  0  0  0  0  0  0  0  0  0
   -0.7184   15.4811   -3.6713 H   0  0  0  0  0  0  0  0  0  0  0  0
    2.0090   15.6701   -3.2026 H   0  0  0  0  0  0  0  0  0  0  0  0
    2.8604   15.2857   -4.7368 H   0  0  0  0  0  0  0  0  0  0  0  0
    1.4900   16.4469   -4.7368 H   0  0  0  0  0  0  0  0  0  0  0  0
  1  2  1  0
  2  3  1  0
  3  4  1  0
  4  5  1  0
  5  6  1  0
  6  7  1  0
  7  8  1  0
  7  9  1  0
  2 10  1  0
 10 11  1  0
 11 12  1  0
 12 13  1  0
 13 14  1  6
 13 15  1  0
 15 16  1  0
 16 17  1  0
 17 18  2  0
 18 19  1  0
 19 20  1  0
 20 21  1  0
 21 22  1  0
 22 23  1  0
 22 24  1  0
 24 25  1  0
 24 26  1  0
 19 27  1  0
 27 28  1  1
 27 29  1  0
 29 30  1  0
 30 31  1  0
 31 32  1  6
  7  5  1  0
 31 10  1  0
 31 13  1  0
 27 15  1  0
 24 18  1  0
  1 33  1  0
  1 34  1  0
  1 35  1  0
  2 36  1  6
  3 37  1  0
  3 38  1  0
  4 39  1  0
  4 40  1  0
  5 41  1  1
  8 42  1  0
  8 43  1  0
  8 44  1  0
  9 45  1  0
  9 46  1  0
  9 47  1  0
 10 48  1  1
 11 49  1  0
 11 50  1  0
 12 51  1  0
 12 52  1  0
 14 53  1  0
 14 54  1  0
 14 55  1  0
 15 56  1  6
 16 57  1  0
 16 58  1  0
 17 59  1  0
 19 60  1  6
 20 61  1  0
 20 62  1  0
 21 63  1  0
 21 64  1  0
 22 65  1  1
 23 66  1  0
 25 67  1  0
 25 68  1  0
 25 69  1  0
 26 70  1  0
 26 71  1  0
 26 72  1  0
 28 73  1  0
 28 74  1  0
 28 75  1  0
 29 76  1  0
 29 77  1  0
 30 78  1  0
 30 79  1  0
 32 80  1  0
 32 81  1  0
 32 82  1  0
M  END
>  <meeko>  (12) 
{"is_sidechain": [false], "intermolecular_energy": 2.731, "internal_energy": -0.839}

$$$$
EPH_relaxed_0001_pdb2pqr_Repair_379_r2_0001_out
     RDKit          3D

 82 86  0  0  0  0  0  0  0  0999 V2000
   -0.1920    9.3610   -2.2930 C   0  0  0  0  0  0  0  0  0  0  0  0
    0.9490   10.2860   -2.7260 C   0  0  2  0  0  0  0  0  0  0  0  0
    2.3070    9.5570   -2.7560 C   0  0  0  0  0  0  0  0  0  0  0  0
    3.2390   10.0390   -3.8720 C   0  0  0  0  0  0  0  0  0  0  0  0
    4.5720   10.4660   -3.3350 C   0  0  2  0  0  0  0  0  0  0  0  0
    4.9720   11.7900   -3.7100 O   0  0  0  0  0  0  0  0  0  0  0  0
    5.7850   10.7170   -4.2110 C   0  0  0  0  0  0  0  0  0  0  0  0
    5.7230   10.5500   -5.6970 C   0  0  0  0  0  0  0  0  0  0  0  0
    7.1440   10.6490   -3.5880 C   0  0  0  0  0  0  0  0  0  0  0  0
    1.0240   11.4890   -1.7940 C   0  0  1  0  0  0  0  0  0  0  0  0
    2.1140   11.3310   -0.7000 C   0  0  0  0  0  0  0  0  0  0  0  0
    2.7040   12.7430   -0.4490 C   0  0  0  0  0  0  0  0  0  0  0  0
    1.7200   13.7070   -1.1520 C   0  0  1  0  0  0  0  0  0  0  0  0
    0.5410   13.8830   -0.1440 C   0  0  0  0  0  0  0  0  0  0  0  0
    2.3060   15.0860   -1.6000 C   0  0  2  0  0  0  0  0  0  0  0  0
    2.8190   15.9790   -0.4570 C   0  0  0  0  0  0  0  0  0  0  0  0
    1.8100   16.9140    0.1230 C   0  0  0  0  0  0  0  0  0  0  0  0
    0.6290   17.2370   -0.4380 C   0  0  0  0  0  0  0  0  0  0  0  0
    0.2500   16.7170   -1.8300 C   0  0  1  0  0  0  0  0  0  0  0  0
   -0.3160   17.8830   -2.6820 C   0  0  0  0  0  0  0  0  0  0  0  0
   -1.4710   18.6040   -1.9940 C   0  0  0  0  0  0  0  0  0  0  0  0
   -1.0380   19.1570   -0.6390 C   0  0  2  0  0  0  0  0  0  0  0  0
   -0.0750   20.1940   -0.8500 O   0  0  0  0  0  0  0  0  0  0  0  0
   -0.4420   18.0740    0.3030 C   0  0  0  0  0  0  0  0  0  0  0  0
   -1.5660   17.1180    0.7740 C   0  0  0  0  0  0  0  0  0  0  0  0
    0.0830   18.7870    1.5790 C   0  0  0  0  0  0  0  0  0  0  0  0
    1.3760   15.8940   -2.5930 C   0  0  1  0  0  0  0  0  0  0  0  0
    2.3040   16.8670   -3.3810 C   0  0  0  0  0  0  0  0  0  0  0  0
    0.6940   14.9630   -3.6650 C   0  0  0  0  0  0  0  0  0  0  0  0
    0.2450   13.5680   -3.1900 C   0  0  0  0  0  0  0  0  0  0  0  0
    1.3700   12.8600   -2.4290 C   0  0  2  0  0  0  0  0  0  0  0  0
    2.5620   12.6500   -3.4230 C   0  0  0  0  0  0  0  0  0  0  0  0
   -0.2374    9.3242   -1.1946 H   0  0  0  0  0  0  0  0  0  0  0  0
   -1.1447    9.7449   -2.6867 H   0  0  0  0  0  0  0  0  0  0  0  0
   -0.0135    8.3495   -2.6867 H   0  0  0  0  0  0  0  0  0  0  0  0
    0.7323   10.6225   -3.7506 H   0  0  0  0  0  0  0  0  0  0  0  0
    2.8090    9.7176   -1.7905 H   0  0  0  0  0  0  0  0  0  0  0  0
    2.0977    8.4943   -2.9480 H   0  0  0  0  0  0  0  0  0  0  0  0
    3.3897    9.2191   -4.5896 H   0  0  0  0  0  0  0  0  0  0  0  0
    2.7710   10.9075   -4.3586 H   0  0  0  0  0  0  0  0  0  0  0  0
    4.4287    9.8577   -2.4298 H   0  0  0  0  0  0  0  0  0  0  0  0
    5.3494    9.5437   -5.9376 H   0  0  0  0  0  0  0  0  0  0  0  0
    5.0450   11.3044   -6.1228 H   0  0  0  0  0  0  0  0  0  0  0  0
    6.7290   10.6792   -6.1228 H   0  0  0  0  0  0  0  0  0  0  0  0
    7.0458   10.6539   -2.4924 H   0  0  0  0  0  0  0  0  0  0  0  0
    7.6477    9.7245   -3.9068 H   0  0  0  0  0  0  0  0  0  0  0  0
    7.7375   11.5186   -3.9068 H   0  0  0  0  0  0  0  0  0  0  0  0
   -0.0105   11.4971   -1.4201 H   0  0  0  0  0  0  0  0  0  0  0  0
    1.6679   10.9369    0.2251 H   0  0  0  0  0  0  0  0  0  0  0  0
    2.8963   10.6274   -1.0207 H   0  0  0  0  0  0  0  0  0  0  0  0
    2.7541   12.9570    0.6288 H   0  0  0  0  0  0  0  0  0  0  0  0
    3.7301   12.8409   -0.8330 H   0  0  0  0  0  0  0  0  0  0  0  0
    0.9264   13.8255    0.8847 H   0  0  0  0  0  0  0  0  0  0  0  0
    0.0655   14.8621   -0.3032 H   0  0  0  0  0  0  0  0  0  0  0  0
   -0.1997   13.0855   -0.3032 H   0  0  0  0  0  0  0  0  0  0  0  0
    3.1986   14.7890   -2.1702 H   0  0  0  0  0  0  0  0  0  0  0  0
    3.1795   15.3245    0.3502 H   0  0  0  0  0  0  0  0  0  0  0  0
    3.6049   16.6122   -0.8945 H   0  0  0  0  0  0  0  0  0  0  0  0
    2.0516   17.3784    1.0904 H   0  0  0  0  0  0  0  0  0  0  0  0
   -0.5309   15.9591   -1.6693 H   0  0  0  0  0  0  0  0  0  0  0  0
    0.4907   18.6073   -2.8684 H   0  0  0  0  0  0  0  0  0  0  0  0
   -0.7009   17.4550   -3.6194 H   0  0  0  0  0  0  0  0  0  0  0  0
   -1.8075   19.4350   -2.6313 H   0  0  0  0  0  0  0  0  0  0  0  0
   -2.2890   17.8859   -1.8354 H   0  0  0  0  0  0  0  0  0  0  0  0
   -1.9375   19.5462   -0.1395 H   0  0  0  0  0  0  0  0  0  0  0  0
   -0.1700   20.8360   -0.1260 H   0  0  0  0  0  0  0  0  0  0  0  0
   -1.5919   17.0960    1.8735 H   0  0  0  0  0  0  0  0  0  0  0  0
   -2.5341   17.4737    0.3915 H   0  0  0  0  0  0  0  0  0  0  0  0
   -1.3703   16.1054    0.3915 H   0  0  0  0  0  0  0  0  0  0  0  0
   -0.2983   18.2692    2.4715 H   0  0  0  0  0  0  0  0  0  0  0  0
    1.1828   18.7659    1.5846 H   0  0  0  0  0  0  0  0  0  0  0  0
   -0.2637   19.8309    1.5846 H   0  0  0  0  0  0  0  0  0  0  0  0
    2.8842   17.4754   -2.6716 H   0  0  0  0  0  0  0  0  0  0  0  0
    2.9913   16.2863   -4.0138 H   0  0  0  0  0  0  0  0  0  0  0  0
    1.6914   17.5261   -4.0138 H   0  0  0  0  0  0  0  0  0  0  0  0
   -0.1956   15.4878   -4.0434 H   0  0  0  0  0  0  0  0  0  0  0  0
    1.4731   14.7732   -4.4180 H   0  0  0  0  0  0  0  0  0  0  0  0
   -0.6255   13.6767   -2.5264 H   0  0  0  0  0  0  0  0  0  0  0  0
   -0.0162   12.9644   -4.0717 H   0  0  0  0  0  0  0  0  0  0  0  0
    3.4893   12.4866   -2.8542 H   0  0  0  0  0  0  0  0  0  0  0  0
    2.3611   11.7734   -4.0564 H   0  0  0  0  0  0  0  0  0  0  0  0
    2.6728   13.5425   -4.0564 H   0  0  0  0  0  0  0  0  0  0  0  0
  1  2  1  0
  2  3  1  0
  3  4  1  0
  4  5  1  0
  5  6  1  0
  6  7  1  0
  7  8  1  0
  7  9  1  0
  2 10  1  0
 10 11  1  0
 11 12  1  0
 12 13  1  0
 13 14  1  1
 13 15  1  0
 15 16  1  0
 16 17  1  0
 17 18  2  0
 18 19  1  0
 19 20  1  0
 20 21  1  0
 21 22  1  0
 22 23  1  0
 22 24  1  0
 24 25  1  0
 24 26  1  0
 19 27  1  0
 27 28  1  6
 27 29  1  0
 29 30  1  0
 30 31  1  0
 31 32  1  6
  7  5  1  0
 31 10  1  0
 31 13  1  0
 27 15  1  0
 24 18  1  0
  1 33  1  0
  1 34  1  0
  1 35  1  0
  2 36  1  6
  3 37  1  0
  3 38  1  0
  4 39  1  0
  4 40  1  0
  5 41  1  1
  8 42  1  0
  8 43  1  0
  8 44  1  0
  9 45  1  0
  9 46  1  0
  9 47  1  0
 10 48  1  1
 11 49  1  0
 11 50  1  0
 12 51  1  0
 12 52  1  0
 14 53  1  0
 14 54  1  0
 14 55  1  0
 15 56  1  6
 16 57  1  0
 16 58  1  0
 17 59  1  0
 19 60  1  1
 20 61  1  0
 20 62  1  0
 21 63  1  0
 21 64  1  0
 22 65  1  1
 23 66  1  0
 25 67  1  0
 25 68  1  0
 25 69  1  0
 26 70  1  0
 26 71  1  0
 26 72  1  0
 28 73  1  0
 28 74  1  0
 28 75  1  0
 29 76  1  0
 29 77  1  0
 30 78  1  0
 30 79  1  0
 32 80  1  0
 32 81  1  0
 32 82  1  0
M  END
>  <meeko>  (13) 
{"is_sidechain": [false], "intermolecular_energy": 2.731, "internal_energy": -0.839}

$$$$
EPH_relaxed_0001_pdb2pqr_Repair_379_r2_0001_out
     RDKit          3D

 82 86  0  0  0  0  0  0  0  0999 V2000
    1.6510   10.7830   -4.8110 C   0  0  0  0  0  0  0  0  0  0  0  0
    0.8980   10.6050   -3.4900 C   0  0  2  0  0  0  0  0  0  0  0  0
   -0.2550    9.5890   -3.6110 C   0  0  0  0  0  0  0  0  0  0  0  0
   -0.1920    8.4610   -2.5770 C   0  0  0  0  0  0  0  0  0  0  0  0
    0.1010    8.9840   -1.2040 C   0  0  2  0  0  0  0  0  0  0  0  0
   -0.2660    8.1010   -0.1360 O   0  0  0  0  0  0  0  0  0  0  0  0
   -0.9760    9.3480   -0.1990 C   0  0  0  0  0  0  0  0  0  0  0  0
   -2.4290    9.2050   -0.5280 C   0  0  0  0  0  0  0  0  0  0  0  0
   -0.6320   10.2950    0.9080 C   0  0  0  0  0  0  0  0  0  0  0  0
    0.3600   11.9490   -3.0140 C   0  0  1  0  0  0  0  0  0  0  0  0
   -1.0390   11.8320   -2.3520 C   0  0  0  0  0  0  0  0  0  0  0  0
   -1.0840   12.8820   -1.2120 C   0  0  0  0  0  0  0  0  0  0  0  0
    0.1460   13.7860   -1.4650 C   0  0  1  0  0  0  0  0  0  0  0  0
   -0.3120   14.7840   -2.5740 C   0  0  0  0  0  0  0  0  0  0  0  0
    0.7230   14.5320   -0.2190 C   0  0  2  0  0  0  0  0  0  0  0  0
   -0.2380   15.5330    0.4460 C   0  0  0  0  0  0  0  0  0  0  0  0
   -0.1630   16.9300   -0.0750 C   0  0  0  0  0  0  0  0  0  0  0  0
    0.8310   17.4310   -0.8310 C   0  0  0  0  0  0  0  0  0  0  0  0
    2.0730   16.5910   -1.1570 C   0  0  1  0  0  0  0  0  0  0  0  0
    3.3490   17.4430   -0.9280 C   0  0  0  0  0  0  0  0  0  0  0  0
    3.3180   18.7610   -1.6960 C   0  0  0  0  0  0  0  0  0  0  0  0
    2.1010   19.5930   -1.3030 C   0  0  2  0  0  0  0  0  0  0  0  0
    2.2440   20.0030    0.0610 O   0  0  0  0  0  0  0  0  0  0  0  0
    0.7560   18.8340   -1.4820 C   0  0  0  0  0  0  0  0  0  0  0  0
    0.4560   18.6560   -2.9900 C   0  0  0  0  0  0  0  0  0  0  0  0
   -0.3780   19.7330   -0.9170 C   0  0  0  0  0  0  0  0  0  0  0  0
    2.1530   15.1700   -0.4500 C   0  0  1  0  0  0  0  0  0  0  0  0
    2.8100   15.3110    0.9570 C   0  0  0  0  0  0  0  0  0  0  0  0
    3.0980   14.2310   -1.2890 C   0  0  0  0  0  0  0  0  0  0  0  0
    2.4450   13.4290   -2.4310 C   0  0  0  0  0  0  0  0  0  0  0  0
    1.1850   12.7080   -1.9440 C   0  0  2  0  0  0  0  0  0  0  0  0
    1.6180   11.6800   -0.8430 C   0  0  0  0  0  0  0  0  0  0  0  0
    2.7022   11.0315   -4.6032 H   0  0  0  0  0  0  0  0  0  0  0  0
    1.6025    9.8486   -5.3895 H   0  0  0  0  0  0  0  0  0  0  0  0
    1.1893   11.5968   -5.3895 H   0  0  0  0  0  0  0  0  0  0  0  0
    1.6116   10.2077   -2.7531 H   0  0  0  0  0  0  0  0  0  0  0  0
   -1.2062   10.1261   -3.4817 H   0  0  0  0  0  0  0  0  0  0  0  0
   -0.1689    9.1213   -4.6029 H   0  0  0  0  0  0  0  0  0  0  0  0
   -1.1596    7.9381   -2.5604 H   0  0  0  0  0  0  0  0  0  0  0  0
    0.6205    7.7773   -2.8643 H   0  0  0  0  0  0  0  0  0  0  0  0
    0.9793    9.5324   -1.5752 H   0  0  0  0  0  0  0  0  0  0  0  0
   -3.0119    9.1476    0.4031 H   0  0  0  0  0  0  0  0  0  0  0  0
   -2.7595   10.0750   -1.1145 H   0  0  0  0  0  0  0  0  0  0  0  0
   -2.5836    8.2873   -1.1145 H   0  0  0  0  0  0  0  0  0  0  0  0
   -0.8096    9.8061    1.8772 H   0  0  0  0  0  0  0  0  0  0  0  0
    0.4274   10.5808    0.8301 H   0  0  0  0  0  0  0  0  0  0  0  0
   -1.2610   11.1941    0.8301 H   0  0  0  0  0  0  0  0  0  0  0  0
    0.3788   12.5016   -3.9649 H   0  0  0  0  0  0  0  0  0  0  0  0
   -1.8264   12.0413   -3.0910 H   0  0  0  0  0  0  0  0  0  0  0  0
   -1.2074   10.8176   -1.9613 H   0  0  0  0  0  0  0  0  0  0  0  0
   -2.0134   13.4684   -1.2606 H   0  0  0  0  0  0  0  0  0  0  0  0
   -1.0618   12.4169   -0.2154 H   0  0  0  0  0  0  0  0  0  0  0  0
   -0.7270   15.6883   -2.1049 H   0  0  0  0  0  0  0  0  0  0  0  0
    0.5504   15.0582   -3.1994 H   0  0  0  0  0  0  0  0  0  0  0  0
   -1.0822   14.3090   -3.1994 H   0  0  0  0  0  0  0  0  0  0  0  0
    0.8511   13.7147    0.5060 H   0  0  0  0  0  0  0  0  0  0  0  0
   -1.2652   15.1690    0.2964 H   0  0  0  0  0  0  0  0  0  0  0  0
    0.0606   15.5857    1.5034 H   0  0  0  0  0  0  0  0  0  0  0  0
   -0.9909   17.6075    0.1810 H   0  0  0  0  0  0  0  0  0  0  0  0
    1.9892   16.3234   -2.2207 H   0  0  0  0  0  0  0  0  0  0  0  0
    3.4382   17.6628    0.1461 H   0  0  0  0  0  0  0  0  0  0  0  0
    4.2083   16.8627   -1.2952 H   0  0  0  0  0  0  0  0  0  0  0  0
    4.2315   19.3307   -1.4703 H   0  0  0  0  0  0  0  0  0  0  0  0
    3.2588   18.5390   -2.7717 H   0  0  0  0  0  0  0  0  0  0  0  0
    2.0633   20.4613   -1.9773 H   0  0  0  0  0  0  0  0  0  0  0  0
    1.7430   20.8290    0.1740 H   0  0  0  0  0  0  0  0  0  0  0  0
   -0.4840   18.0982   -3.1135 H   0  0  0  0  0  0  0  0  0  0  0  0
    0.3611   19.6440   -3.4641 H   0  0  0  0  0  0  0  0  0  0  0  0
    1.2777   18.0992   -3.4641 H   0  0  0  0  0  0  0  0  0  0  0  0
   -0.3501   19.7109    0.1824 H   0  0  0  0  0  0  0  0  0  0  0  0
   -0.2355   20.7662   -1.2667 H   0  0  0  0  0  0  0  0  0  0  0  0
   -1.3514   19.3585   -1.2667 H   0  0  0  0  0  0  0  0  0  0  0  0
    2.0495   15.1478    1.7348 H   0  0  0  0  0  0  0  0  0  0  0  0
    3.6105   14.5642    1.0644 H   0  0  0  0  0  0  0  0  0  0  0  0
    3.2335   16.3205    1.0644 H   0  0  0  0  0  0  0  0  0  0  0  0
    3.8844   14.8600   -1.7316 H   0  0  0  0  0  0  0  0  0  0  0  0
    3.4589   13.4749   -0.5762 H   0  0  0  0  0  0  0  0  0  0  0  0
    2.1737   14.1175   -3.2448 H   0  0  0  0  0  0  0  0  0  0  0  0
    3.1642   12.6765   -2.7868 H   0  0  0  0  0  0  0  0  0  0  0  0
    1.4365   12.1109    0.1527 H   0  0  0  0  0  0  0  0  0  0  0  0
    1.0330   10.7552   -0.9545 H   0  0  0  0  0  0  0  0  0  0  0  0
    2.6884   11.4524   -0.9545 H   0  0  0  0  0  0  0  0  0  0  0  0
  1  2  1  0
  2  3  1  0
  3  4  1  0
  4  5  1  0
  5  6  1  0
  6  7  1  0
  7  8  1  0
  7  9  1  0
  2 10  1  0
 10 11  1  0
 11 12  1  0
 12 13  1  0
 13 14  1  6
 13 15  1  0
 15 16  1  0
 16 17  1  0
 17 18  2  0
 18 19  1  0
 19 20  1  0
 20 21  1  0
 21 22  1  0
 22 23  1  0
 22 24  1  0
 24 25  1  0
 24 26  1  0
 19 27  1  0
 27 28  1  1
 27 29  1  0
 29 30  1  0
 30 31  1  0
 31 32  1  1
  7  5  1  0
 31 10  1  0
 31 13  1  0
 27 15  1  0
 24 18  1  0
  1 33  1  0
  1 34  1  0
  1 35  1  0
  2 36  1  1
  3 37  1  0
  3 38  1  0
  4 39  1  0
  4 40  1  0
  5 41  1  6
  8 42  1  0
  8 43  1  0
  8 44  1  0
  9 45  1  0
  9 46  1  0
  9 47  1  0
 10 48  1  6
 11 49  1  0
 11 50  1  0
 12 51  1  0
 12 52  1  0
 14 53  1  0
 14 54  1  0
 14 55  1  0
 15 56  1  1
 16 57  1  0
 16 58  1  0
 17 59  1  0
 19 60  1  6
 20 61  1  0
 20 62  1  0
 21 63  1  0
 21 64  1  0
 22 65  1  6
 23 66  1  0
 25 67  1  0
 25 68  1  0
 25 69  1  0
 26 70  1  0
 26 71  1  0
 26 72  1  0
 28 73  1  0
 28 74  1  0
 28 75  1  0
 29 76  1  0
 29 77  1  0
 30 78  1  0
 30 79  1  0
 32 80  1  0
 32 81  1  0
 32 82  1  0
M  END
>  <meeko>  (14) 
{"is_sidechain": [false], "intermolecular_energy": 2.731, "internal_energy": -0.839}

$$$$
EPH_relaxed_0001_pdb2pqr_Repair_379_r2_0001_out
     RDKit          3D

 82 86  0  0  0  0  0  0  0  0999 V2000
    0.7340    9.3470   -0.0590 C   0  0  0  0  0  0  0  0  0  0  0  0
   -0.4390   10.3250   -0.1640 C   0  0  2  0  0  0  0  0  0  0  0  0
   -1.0120   10.3930   -1.5940 C   0  0  0  0  0  0  0  0  0  0  0  0
   -0.0670    9.8360   -2.6620 C   0  0  0  0  0  0  0  0  0  0  0  0
    0.0310   10.7490   -3.8470 C   0  0  2  0  0  0  0  0  0  0  0  0
    0.6230   10.1580   -5.0110 O   0  0  0  0  0  0  0  0  0  0  0  0
    1.3470   11.2460   -4.4140 C   0  0  0  0  0  0  0  0  0  0  0  0
    2.6570   10.8460   -3.8100 C   0  0  0  0  0  0  0  0  0  0  0  0
    1.3460   12.4960   -5.2370 C   0  0  0  0  0  0  0  0  0  0  0  0
   -0.0020   11.7120    0.2890 C   0  0  1  0  0  0  0  0  0  0  0  0
    1.1020   11.6650    1.3790 C   0  0  0  0  0  0  0  0  0  0  0  0
    2.0330   12.8790    1.1260 C   0  0  0  0  0  0  0  0  0  0  0  0
    1.2570   13.7620    0.1210 C   0  0  1  0  0  0  0  0  0  0  0  0
    0.2400   14.5630    0.9930 C   0  0  0  0  0  0  0  0  0  0  0  0
    2.1200   14.7090   -0.7760 C   0  0  2  0  0  0  0  0  0  0  0  0
    2.9230   15.7770   -0.0130 C   0  0  0  0  0  0  0  0  0  0  0  0
    2.2190   17.0770    0.1940 C   0  0  0  0  0  0  0  0  0  0  0  0
    1.1100   17.4780   -0.4540 C   0  0  0  0  0  0  0  0  0  0  0  0
    0.5050   16.6290   -1.5800 C   0  0  1  0  0  0  0  0  0  0  0  0
    0.1700   17.5390   -2.7910 C   0  0  0  0  0  0  0  0  0  0  0  0
   -0.7180   18.7190   -2.4090 C   0  0  0  0  0  0  0  0  0  0  0  0
   -0.0570   19.5710   -1.3290 C   0  0  2  0  0  0  0  0  0  0  0  0
    1.1070   20.1940   -1.8810 O   0  0  0  0  0  0  0  0  0  0  0  0
    0.3340   18.7600   -0.0620 C   0  0  0  0  0  0  0  0  0  0  0  0
   -0.9450   18.3400    0.7030 C   0  0  0  0  0  0  0  0  0  0  0  0
    1.1170   19.7070    0.8880 C   0  0  0  0  0  0  0  0  0  0  0  0
    1.3340   15.3390   -1.9970 C   0  0  1  0  0  0  0  0  0  0  0  0
    2.4030   15.7160   -3.0670 C   0  0  0  0  0  0  0  0  0  0  0  0
    0.3650   14.3040   -2.6820 C   0  0  0  0  0  0  0  0  0  0  0  0
   -0.3670   13.3170   -1.7530 C   0  0  0  0  0  0  0  0  0  0  0  0
    0.6110   12.6490   -0.7820 C   0  0  2  0  0  0  0  0  0  0  0  0
    1.6340   11.8180   -1.6300 C   0  0  0  0  0  0  0  0  0  0  0  0
    0.9603    9.1583    1.0008 H   0  0  0  0  0  0  0  0  0  0  0  0
    0.4671    8.4001   -0.5512 H   0  0  0  0  0  0  0  0  0  0  0  0
    1.6174    9.7798   -0.5512 H   0  0  0  0  0  0  0  0  0  0  0  0
   -1.2385    9.9545    0.4945 H   0  0  0  0  0  0  0  0  0  0  0  0
   -1.9470    9.8142   -1.6215 H   0  0  0  0  0  0  0  0  0  0  0  0
   -1.1700   11.4563   -1.8271 H   0  0  0  0  0  0  0  0  0  0  0  0
    0.9341    9.7131   -2.2230 H   0  0  0  0  0  0  0  0  0  0  0  0
   -0.4684    8.8710   -3.0051 H   0  0  0  0  0  0  0  0  0  0  0  0
   -0.8883   11.2737   -3.5479 H   0  0  0  0  0  0  0  0  0  0  0  0
    2.5777   10.8702   -2.7131 H   0  0  0  0  0  0  0  0  0  0  0  0
    2.9157    9.8279   -4.1365 H   0  0  0  0  0  0  0  0  0  0  0  0
    3.4403   11.5459   -4.1365 H   0  0  0  0  0  0  0  0  0  0  0  0
    1.3453   13.3726   -4.5724 H   0  0  0  0  0  0  0  0  0  0  0  0
    2.2441   12.5178   -5.8717 H   0  0  0  0  0  0  0  0  0  0  0  0
    0.4478   12.5164   -5.8717 H   0  0  0  0  0  0  0  0  0  0  0  0
   -0.9705   12.1090    0.6272 H   0  0  0  0  0  0  0  0  0  0  0  0
    0.6499   11.7364    2.3793 H   0  0  0  0  0  0  0  0  0  0  0  0
    1.6635   10.7203    1.3317 H   0  0  0  0  0  0  0  0  0  0  0  0
    2.2195   13.4271    2.0613 H   0  0  0  0  0  0  0  0  0  0  0  0
    3.0183   12.5765    0.7418 H   0  0  0  0  0  0  0  0  0  0  0  0
    0.4563   14.3927    2.0580 H   0  0  0  0  0  0  0  0  0  0  0  0
    0.3292   15.6360    0.7678 H   0  0  0  0  0  0  0  0  0  0  0  0
   -0.7822   14.2248    0.7678 H   0  0  0  0  0  0  0  0  0  0  0  0
    2.8659   14.0196   -1.1982 H   0  0  0  0  0  0  0  0  0  0  0  0
    3.1791   15.3680    0.9755 H   0  0  0  0  0  0  0  0  0  0  0  0
    3.8002   16.0020   -0.6374 H   0  0  0  0  0  0  0  0  0  0  0  0
    2.6429   17.7657    0.9397 H   0  0  0  0  0  0  0  0  0  0  0  0
   -0.4198   16.1956   -1.1715 H   0  0  0  0  0  0  0  0  0  0  0  0
    1.1098   17.9266   -3.2112 H   0  0  0  0  0  0  0  0  0  0  0  0
   -0.3808   16.9304   -3.5233 H   0  0  0  0  0  0  0  0  0  0  0  0
   -0.8946   19.3399   -3.2996 H   0  0  0  0  0  0  0  0  0  0  0  0
   -1.6693   18.3303   -2.0167 H   0  0  0  0  0  0  0  0  0  0  0  0
   -0.7928   20.3217   -1.0050 H   0  0  0  0  0  0  0  0  0  0  0  0
    1.1920   21.0720   -1.4740 H   0  0  0  0  0  0  0  0  0  0  0  0
   -0.7611   18.4004    1.7858 H   0  0  0  0  0  0  0  0  0  0  0  0
   -1.7715   19.0139    0.4333 H   0  0  0  0  0  0  0  0  0  0  0  0
   -1.2111   17.3073    0.4333 H   0  0  0  0  0  0  0  0  0  0  0  0
    0.8976   19.4417    1.9327 H   0  0  0  0  0  0  0  0  0  0  0  0
    2.1961   19.6027    0.7020 H   0  0  0  0  0  0  0  0  0  0  0  0
    0.8118   20.7473    0.7020 H   0  0  0  0  0  0  0  0  0  0  0  0
    3.3258   16.0414   -2.5645 H   0  0  0  0  0  0  0  0  0  0  0  0
    2.6175   14.8393   -3.6958 H   0  0  0  0  0  0  0  0  0  0  0  0
    2.0201   16.5333   -3.6958 H   0  0  0  0  0  0  0  0  0  0  0  0
   -0.3995   14.8755   -3.2288 H   0  0  0  0  0  0  0  0  0  0  0  0
    1.0126   13.6781   -3.3136 H   0  0  0  0  0  0  0  0  0  0  0  0
   -1.1292   13.8626   -1.1773 H   0  0  0  0  0  0  0  0  0  0  0  0
   -0.8358   12.5366   -2.3704 H   0  0  0  0  0  0  0  0  0  0  0  0
    2.3089   11.2698   -0.9562 H   0  0  0  0  0  0  0  0  0  0  0  0
    1.0893   11.1034   -2.2645 H   0  0  0  0  0  0  0  0  0  0  0  0
    2.2218   12.4976   -2.2645 H   0  0  0  0  0  0  0  0  0  0  0  0
  1  2  1  0
  2  3  1  0
  3  4  1  0
  4  5  1  0
  5  6  1  0
  6  7  1  0
  7  8  1  0
  7  9  1  0
  2 10  1  0
 10 11  1  0
 11 12  1  0
 12 13  1  0
 13 14  1  1
 13 15  1  0
 15 16  1  0
 16 17  1  0
 17 18  2  0
 18 19  1  0
 19 20  1  0
 20 21  1  0
 21 22  1  0
 22 23  1  0
 22 24  1  0
 24 25  1  0
 24 26  1  0
 19 27  1  0
 27 28  1  6
 27 29  1  0
 29 30  1  0
 30 31  1  0
 31 32  1  6
  7  5  1  0
 31 10  1  0
 31 13  1  0
 27 15  1  0
 24 18  1  0
  1 33  1  0
  1 34  1  0
  1 35  1  0
  2 36  1  1
  3 37  1  0
  3 38  1  0
  4 39  1  0
  4 40  1  0
  5 41  1  6
  8 42  1  0
  8 43  1  0
  8 44  1  0
  9 45  1  0
  9 46  1  0
  9 47  1  0
 10 48  1  1
 11 49  1  0
 11 50  1  0
 12 51  1  0
 12 52  1  0
 14 53  1  0
 14 54  1  0
 14 55  1  0
 15 56  1  6
 16 57  1  0
 16 58  1  0
 17 59  1  0
 19 60  1  1
 20 61  1  0
 20 62  1  0
 21 63  1  0
 21 64  1  0
 22 65  1  1
 23 66  1  0
 25 67  1  0
 25 68  1  0
 25 69  1  0
 26 70  1  0
 26 71  1  0
 26 72  1  0
 28 73  1  0
 28 74  1  0
 28 75  1  0
 29 76  1  0
 29 77  1  0
 30 78  1  0
 30 79  1  0
 32 80  1  0
 32 81  1  0
 32 82  1  0
M  END
>  <meeko>  (15) 
{"is_sidechain": [false], "intermolecular_energy": 2.731, "internal_energy": -0.839}

$$$$
EPH_relaxed_0001_pdb2pqr_Repair_379_r2_0001_out
     RDKit          3D

 82 86  0  0  0  0  0  0  0  0999 V2000
   -1.7430   14.8100    0.4450 C   0  0  0  0  0  0  0  0  0  0  0  0
   -0.3890   15.5060    0.2820 C   0  0  2  0  0  0  0  0  0  0  0  0
   -0.4080   16.5550   -0.8480 C   0  0  0  0  0  0  0  0  0  0  0  0
   -0.0300   17.9640   -0.3860 C   0  0  0  0  0  0  0  0  0  0  0  0
    1.4150   18.0510    0.0060 C   0  0  2  0  0  0  0  0  0  0  0  0
    2.0610   19.2770   -0.3590 O   0  0  0  0  0  0  0  0  0  0  0  0
    2.5530   18.0880   -0.9970 C   0  0  0  0  0  0  0  0  0  0  0  0
    2.2960   18.0380   -2.4710 C   0  0  0  0  0  0  0  0  0  0  0  0
    3.9200   17.6810   -0.5440 C   0  0  0  0  0  0  0  0  0  0  0  0
    0.6980   14.4720    0.0150 C   0  0  1  0  0  0  0  0  0  0  0  0
    0.8280   13.4330    1.1610 C   0  0  0  0  0  0  0  0  0  0  0  0
    1.1990   12.0810    0.4990 C   0  0  0  0  0  0  0  0  0  0  0  0
    1.5930   12.4510   -0.9500 C   0  0  1  0  0  0  0  0  0  0  0  0
    3.0690   12.9500   -0.8490 C   0  0  0  0  0  0  0  0  0  0  0  0
    1.4380   11.3210   -2.0190 C   0  0  2  0  0  0  0  0  0  0  0  0
    2.3180   10.0800   -1.7890 C   0  0  0  0  0  0  0  0  0  0  0  0
    3.6620   10.1220   -2.4390 C   0  0  0  0  0  0  0  0  0  0  0  0
    4.0360   10.9810   -3.4050 C   0  0  0  0  0  0  0  0  0  0  0  0
    3.0330   11.9710   -4.0120 C   0  0  1  0  0  0  0  0  0  0  0  0
    3.1550   11.9490   -5.5580 C   0  0  0  0  0  0  0  0  0  0  0  0
    4.5820   12.1980   -6.0360 C   0  0  0  0  0  0  0  0  0  0  0  0
    5.5400   11.1590   -5.4590 C   0  0  2  0  0  0  0  0  0  0  0  0
    5.2190    9.8790   -6.0120 O   0  0  0  0  0  0  0  0  0  0  0  0
    5.4980   11.0830   -3.9070 C   0  0  0  0  0  0  0  0  0  0  0  0
    6.1300   12.3630   -3.3060 C   0  0  0  0  0  0  0  0  0  0  0  0
    6.4030    9.9020   -3.4620 C   0  0  0  0  0  0  0  0  0  0  0  0
    1.5300   11.8260   -3.5150 C   0  0  1  0  0  0  0  0  0  0  0  0
    0.7810   10.7740   -4.3880 C   0  0  0  0  0  0  0  0  0  0  0  0
    0.7840   13.1960   -3.7320 C   0  0  0  0  0  0  0  0  0  0  0  0
    0.8760   14.2250   -2.5890 C   0  0  0  0  0  0  0  0  0  0  0  0
    0.5380   13.5800   -1.2420 C   0  0  2  0  0  0  0  0  0  0  0  0
   -0.9480   13.0880   -1.3050 C   0  0  0  0  0  0  0  0  0  0  0  0
   -1.9691   14.6938    1.5152 H   0  0  0  0  0  0  0  0  0  0  0  0
   -2.5270   15.4169   -0.0316 H   0  0  0  0  0  0  0  0  0  0  0  0
   -1.7057   13.8193   -0.0316 H   0  0  0  0  0  0  0  0  0  0  0  0
   -0.1742   16.0366    1.2213 H   0  0  0  0  0  0  0  0  0  0  0  0
    0.3048   16.2414   -1.6249 H   0  0  0  0  0  0  0  0  0  0  0  0
   -1.4412   16.6058   -1.2220 H   0  0  0  0  0  0  0  0  0  0  0  0
   -0.2197   18.6711   -1.2070 H   0  0  0  0  0  0  0  0  0  0  0  0
   -0.6396   18.2105    0.4958 H   0  0  0  0  0  0  0  0  0  0  0  0
    1.2356   17.4297    0.8958 H   0  0  0  0  0  0  0  0  0  0  0  0
    1.2307   17.8308   -2.6506 H   0  0  0  0  0  0  0  0  0  0  0  0
    2.5627   19.0049   -2.9227 H   0  0  0  0  0  0  0  0  0  0  0  0
    2.9057   17.2416   -2.9227 H   0  0  0  0  0  0  0  0  0  0  0  0
    3.9541   17.6709    0.5554 H   0  0  0  0  0  0  0  0  0  0  0  0
    4.1491   16.6757   -0.9272 H   0  0  0  0  0  0  0  0  0  0  0  0
    4.6617   18.3973   -0.9272 H   0  0  0  0  0  0  0  0  0  0  0  0
    1.5631   15.1406   -0.1058 H   0  0  0  0  0  0  0  0  0  0  0  0
    1.6171   13.7402    1.8631 H   0  0  0  0  0  0  0  0  0  0  0  0
   -0.1111   13.3507    1.7279 H   0  0  0  0  0  0  0  0  0  0  0  0
    2.0441   11.6110    1.0232 H   0  0  0  0  0  0  0  0  0  0  0  0
    0.3706   11.3581    0.5343 H   0  0  0  0  0  0  0  0  0  0  0  0
    3.3521   13.0457    0.2096 H   0  0  0  0  0  0  0  0  0  0  0  0
    3.7351   12.2271   -1.3427 H   0  0  0  0  0  0  0  0  0  0  0  0
    3.1598   13.9288   -1.3427 H   0  0  0  0  0  0  0  0  0  0  0  0
    0.4024   10.9864   -1.8592 H   0  0  0  0  0  0  0  0  0  0  0  0
    2.4679    9.9657   -0.7053 H   0  0  0  0  0  0  0  0  0  0  0  0
    1.7827    9.2373   -2.2508 H   0  0  0  0  0  0  0  0  0  0  0  0
    4.4089    9.3892   -2.0996 H   0  0  0  0  0  0  0  0  0  0  0  0
    3.3149   12.9635   -3.6304 H   0  0  0  0  0  0  0  0  0  0  0  0
    2.8275   10.9646   -5.9235 H   0  0  0  0  0  0  0  0  0  0  0  0
    2.5243   12.7585   -5.9541 H   0  0  0  0  0  0  0  0  0  0  0  0
    4.6087   12.1416   -7.1342 H   0  0  0  0  0  0  0  0  0  0  0  0
    4.8978   13.1947   -5.6941 H   0  0  0  0  0  0  0  0  0  0  0  0
    6.5612   11.4644   -5.7308 H   0  0  0  0  0  0  0  0  0  0  0  0
    4.3230    9.9350   -6.3850 H   0  0  0  0  0  0  0  0  0  0  0  0
    6.1015   12.3052   -2.2079 H   0  0  0  0  0  0  0  0  0  0  0  0
    7.1740   12.4488   -3.6416 H   0  0  0  0  0  0  0  0  0  0  0  0
    5.5634   13.2441   -3.6416 H   0  0  0  0  0  0  0  0  0  0  0  0
    6.4359    9.8590   -2.3633 H   0  0  0  0  0  0  0  0  0  0  0  0
    5.9942    8.9589   -3.8537 H   0  0  0  0  0  0  0  0  0  0  0  0
    7.4199   10.0515   -3.8537 H   0  0  0  0  0  0  0  0  0  0  0  0
    0.2679   10.0534   -3.7342 H   0  0  0  0  0  0  0  0  0  0  0  0
    0.0416   11.2840   -5.0229 H   0  0  0  0  0  0  0  0  0  0  0  0
    1.5049   10.2422   -5.0229 H   0  0  0  0  0  0  0  0  0  0  0  0
    1.2027   13.6636   -4.6354 H   0  0  0  0  0  0  0  0  0  0  0  0
   -0.2826   12.9357   -3.8001 H   0  0  0  0  0  0  0  0  0  0  0  0
    1.8990   14.6274   -2.5486 H   0  0  0  0  0  0  0  0  0  0  0  0
    0.1526   15.0306   -2.7834 H   0  0  0  0  0  0  0  0  0  0  0  0
   -1.3354   12.9597   -0.2835 H   0  0  0  0  0  0  0  0  0  0  0  0
   -1.5583   13.8320   -1.8379 H   0  0  0  0  0  0  0  0  0  0  0  0
   -0.9937   12.1268   -1.8379 H   0  0  0  0  0  0  0  0  0  0  0  0
  1  2  1  0
  2  3  1  0
  3  4  1  0
  4  5  1  0
  5  6  1  0
  6  7  1  0
  7  8  1  0
  7  9  1  0
  2 10  1  0
 10 11  1  0
 11 12  1  0
 12 13  1  0
 13 14  1  1
 13 15  1  0
 15 16  1  0
 16 17  1  0
 17 18  2  0
 18 19  1  0
 19 20  1  0
 20 21  1  0
 21 22  1  0
 22 23  1  0
 22 24  1  0
 24 25  1  0
 24 26  1  0
 19 27  1  0
 27 28  1  6
 27 29  1  0
 29 30  1  0
 30 31  1  0
 31 32  1  6
  7  5  1  0
 31 10  1  0
 31 13  1  0
 27 15  1  0
 24 18  1  0
  1 33  1  0
  1 34  1  0
  1 35  1  0
  2 36  1  1
  3 37  1  0
  3 38  1  0
  4 39  1  0
  4 40  1  0
  5 41  1  1
  8 42  1  0
  8 43  1  0
  8 44  1  0
  9 45  1  0
  9 46  1  0
  9 47  1  0
 10 48  1  6
 11 49  1  0
 11 50  1  0
 12 51  1  0
 12 52  1  0
 14 53  1  0
 14 54  1  0
 14 55  1  0
 15 56  1  6
 16 57  1  0
 16 58  1  0
 17 59  1  0
 19 60  1  1
 20 61  1  0
 20 62  1  0
 21 63  1  0
 21 64  1  0
 22 65  1  1
 23 66  1  0
 25 67  1  0
 25 68  1  0
 25 69  1  0
 26 70  1  0
 26 71  1  0
 26 72  1  0
 28 73  1  0
 28 74  1  0
 28 75  1  0
 29 76  1  0
 29 77  1  0
 30 78  1  0
 30 79  1  0
 32 80  1  0
 32 81  1  0
 32 82  1  0
M  END
>  <meeko>  (16) 
{"is_sidechain": [false], "intermolecular_energy": 2.731, "internal_energy": -0.839}

$$$$
EPH_relaxed_0001_pdb2pqr_Repair_379_r2_0001_out
     RDKit          3D

 82 86  0  0  0  0  0  0  0  0999 V2000
    3.1350   14.8170   -7.5400 C   0  0  0  0  0  0  0  0  0  0  0  0
    1.6130   14.8970   -7.3960 C   0  0  2  0  0  0  0  0  0  0  0  0
    1.0330   16.1670   -8.0510 C   0  0  0  0  0  0  0  0  0  0  0  0
    1.9650   16.8050   -9.0860 C   0  0  0  0  0  0  0  0  0  0  0  0
    1.6030   16.3990  -10.4820 C   0  0  2  0  0  0  0  0  0  0  0  0
    1.0010   15.1030  -10.5920 O   0  0  0  0  0  0  0  0  0  0  0  0
    2.2800   15.2630  -11.2250 C   0  0  0  0  0  0  0  0  0  0  0  0
    3.3760   14.4620  -10.5950 C   0  0  0  0  0  0  0  0  0  0  0  0
    2.2190   15.2490  -12.7210 C   0  0  0  0  0  0  0  0  0  0  0  0
    1.2280   14.8500   -5.9220 C   0  0  1  0  0  0  0  0  0  0  0  0
   -0.0300   15.7030   -5.6050 C   0  0  0  0  0  0  0  0  0  0  0  0
   -0.8070   14.9570   -4.4910 C   0  0  0  0  0  0  0  0  0  0  0  0
    0.1830   13.8880   -3.9730 C   0  0  1  0  0  0  0  0  0  0  0  0
    1.1180   14.6520   -2.9840 C   0  0  0  0  0  0  0  0  0  0  0  0
   -0.4510   12.6230   -3.3070 C   0  0  2  0  0  0  0  0  0  0  0  0
   -1.2700   12.8980   -2.0340 C   0  0  0  0  0  0  0  0  0  0  0  0
   -0.5010   12.8390   -0.7560 C   0  0  0  0  0  0  0  0  0  0  0  0
    0.7240   12.3010   -0.6040 C   0  0  0  0  0  0  0  0  0  0  0  0
    1.4210   11.5870   -1.7690 C   0  0  1  0  0  0  0  0  0  0  0  0
    2.0110   10.2410   -1.2740 C   0  0  0  0  0  0  0  0  0  0  0  0
    2.9250   10.4130   -0.0640 C   0  0  0  0  0  0  0  0  0  0  0  0
    2.1800   11.0730    1.0930 C   0  0  2  0  0  0  0  0  0  0  0  0
    1.1690   10.1750    1.5620 O   0  0  0  0  0  0  0  0  0  0  0  0
    1.5340   12.4340    0.7090 C   0  0  0  0  0  0  0  0  0  0  0  0
    2.6420   13.4930    0.4920 C   0  0  0  0  0  0  0  0  0  0  0  0
    0.6970   12.9230    1.9220 C   0  0  0  0  0  0  0  0  0  0  0  0
    0.5610   11.4250   -3.0960 C   0  0  1  0  0  0  0  0  0  0  0  0
   -0.2970   10.1260   -3.0190 C   0  0  0  0  0  0  0  0  0  0  0  0
    1.5350   11.2420   -4.3200 C   0  0  0  0  0  0  0  0  0  0  0  0
    2.0320   12.5260   -5.0110 C   0  0  0  0  0  0  0  0  0  0  0  0
    0.8650   13.4670   -5.3260 C   0  0  2  0  0  0  0  0  0  0  0  0
   -0.0810   12.7330   -6.3360 C   0  0  0  0  0  0  0  0  0  0  0  0
    3.5970   14.7927   -6.5420 H   0  0  0  0  0  0  0  0  0  0  0  0
    3.4037   13.9035   -8.0907 H   0  0  0  0  0  0  0  0  0  0  0  0
    3.4980   15.6973   -8.0907 H   0  0  0  0  0  0  0  0  0  0  0  0
    1.1851   14.0302   -7.9208 H   0  0  0  0  0  0  0  0  0  0  0  0
    0.0897   15.9007   -8.5502 H   0  0  0  0  0  0  0  0  0  0  0  0
    0.8886   16.9058   -7.2489 H   0  0  0  0  0  0  0  0  0  0  0  0
    1.8937   17.8996   -9.0032 H   0  0  0  0  0  0  0  0  0  0  0  0
    2.9898   16.4604   -8.8834 H   0  0  0  0  0  0  0  0  0  0  0  0
    1.4004   17.4443  -10.7582 H   0  0  0  0  0  0  0  0  0  0  0  0
    3.2920   14.5234   -9.4999 H   0  0  0  0  0  0  0  0  0  0  0  0
    3.2908   13.4118  -10.9110 H   0  0  0  0  0  0  0  0  0  0  0  0
    4.3507   14.8621  -10.9110 H   0  0  0  0  0  0  0  0  0  0  0  0
    1.1941   15.0138  -13.0440 H   0  0  0  0  0  0  0  0  0  0  0  0
    2.5081   16.2369  -13.1090 H   0  0  0  0  0  0  0  0  0  0  0  0
    2.9099   14.4861  -13.1090 H   0  0  0  0  0  0  0  0  0  0  0  0
    2.1631   15.2190   -5.4755 H   0  0  0  0  0  0  0  0  0  0  0  0
    0.2683   16.7022   -5.2547 H   0  0  0  0  0  0  0  0  0  0  0  0
   -0.6539   15.8347   -6.5013 H   0  0  0  0  0  0  0  0  0  0  0  0
   -1.0884   15.6492   -3.6837 H   0  0  0  0  0  0  0  0  0  0  0  0
   -1.7433   14.5137   -4.8609 H   0  0  0  0  0  0  0  0  0  0  0  0
    0.8288   14.4157   -1.9494 H   0  0  0  0  0  0  0  0  0  0  0  0
    2.1604   14.3439   -3.1528 H   0  0  0  0  0  0  0  0  0  0  0  0
    1.0238   15.7349   -3.1528 H   0  0  0  0  0  0  0  0  0  0  0  0
   -1.1777   12.2962   -4.0653 H   0  0  0  0  0  0  0  0  0  0  0  0
   -1.7070   13.9037   -2.1216 H   0  0  0  0  0  0  0  0  0  0  0  0
   -2.0199   12.0954   -1.9753 H   0  0  0  0  0  0  0  0  0  0  0  0
   -0.9752   13.2717    0.1373 H   0  0  0  0  0  0  0  0  0  0  0  0
    2.2341   12.2539   -2.0915 H   0  0  0  0  0  0  0  0  0  0  0  0
    1.1820    9.5729   -0.9977 H   0  0  0  0  0  0  0  0  0  0  0  0
    2.6146    9.8200   -2.0915 H   0  0  0  0  0  0  0  0  0  0  0  0
    3.2864    9.4251    0.2574 H   0  0  0  0  0  0  0  0  0  0  0  0
    3.7695   11.0570   -0.3507 H   0  0  0  0  0  0  0  0  0  0  0  0
    2.9171   11.2875    1.8808 H   0  0  0  0  0  0  0  0  0  0  0  0
    0.6590   10.6390    2.2470 H   0  0  0  0  0  0  0  0  0  0  0  0
    3.0095   13.8443    1.4675 H   0  0  0  0  0  0  0  0  0  0  0  0
    3.4725   13.0443   -0.0728 H   0  0  0  0  0  0  0  0  0  0  0  0
    2.2313   14.3429   -0.0728 H   0  0  0  0  0  0  0  0  0  0  0  0
    1.1989   12.6298    2.8559 H   0  0  0  0  0  0  0  0  0  0  0  0
    0.6027   14.0183    1.8847 H   0  0  0  0  0  0  0  0  0  0  0  0
   -0.3035   12.4673    1.8847 H   0  0  0  0  0  0  0  0  0  0  0  0
   -0.4706    9.8632   -1.9651 H   0  0  0  0  0  0  0  0  0  0  0  0
   -1.2624   10.2940   -3.5188 H   0  0  0  0  0  0  0  0  0  0  0  0
    0.2365    9.3040   -3.5188 H   0  0  0  0  0  0  0  0  0  0  0  0
    2.4188   10.6931   -3.9627 H   0  0  0  0  0  0  0  0  0  0  0  0
    0.9424   10.7158   -5.0829 H   0  0  0  0  0  0  0  0  0  0  0  0
    2.7402   13.0415   -4.3456 H   0  0  0  0  0  0  0  0  0  0  0  0
    2.5228   12.2482   -5.9554 H   0  0  0  0  0  0  0  0  0  0  0  0
   -0.8307   12.1513   -5.7797 H   0  0  0  0  0  0  0  0  0  0  0  0
   -0.5889   13.4757   -6.9688 H   0  0  0  0  0  0  0  0  0  0  0  0
    0.5123   12.0565   -6.9688 H   0  0  0  0  0  0  0  0  0  0  0  0
  1  2  1  0
  2  3  1  0
  3  4  1  0
  4  5  1  0
  5  6  1  0
  6  7  1  0
  7  8  1  0
  7  9  1  0
  2 10  1  0
 10 11  1  0
 11 12  1  0
 12 13  1  0
 13 14  1  1
 13 15  1  0
 15 16  1  0
 16 17  1  0
 17 18  2  0
 18 19  1  0
 19 20  1  0
 20 21  1  0
 21 22  1  0
 22 23  1  0
 22 24  1  0
 24 25  1  0
 24 26  1  0
 19 27  1  0
 27 28  1  1
 27 29  1  0
 29 30  1  0
 30 31  1  0
 31 32  1  6
  7  5  1  0
 31 10  1  0
 31 13  1  0
 27 15  1  0
 24 18  1  0
  1 33  1  0
  1 34  1  0
  1 35  1  0
  2 36  1  6
  3 37  1  0
  3 38  1  0
  4 39  1  0
  4 40  1  0
  5 41  1  6
  8 42  1  0
  8 43  1  0
  8 44  1  0
  9 45  1  0
  9 46  1  0
  9 47  1  0
 10 48  1  1
 11 49  1  0
 11 50  1  0
 12 51  1  0
 12 52  1  0
 14 53  1  0
 14 54  1  0
 14 55  1  0
 15 56  1  6
 16 57  1  0
 16 58  1  0
 17 59  1  0
 19 60  1  6
 20 61  1  0
 20 62  1  0
 21 63  1  0
 21 64  1  0
 22 65  1  1
 23 66  1  0
 25 67  1  0
 25 68  1  0
 25 69  1  0
 26 70  1  0
 26 71  1  0
 26 72  1  0
 28 73  1  0
 28 74  1  0
 28 75  1  0
 29 76  1  0
 29 77  1  0
 30 78  1  0
 30 79  1  0
 32 80  1  0
 32 81  1  0
 32 82  1  0
M  END
>  <meeko>  (17) 
{"is_sidechain": [false], "intermolecular_energy": 2.731, "internal_energy": -0.839}

$$$$
EPH_relaxed_0001_pdb2pqr_Repair_379_r2_0001_out
     RDKit          3D

 82 86  0  0  0  0  0  0  0  0999 V2000
    1.0020    8.2810   -2.4590 C   0  0  0  0  0  0  0  0  0  0  0  0
   -0.4420    8.5650   -2.0340 C   0  0  2  0  0  0  0  0  0  0  0  0
   -1.4660    7.9400   -3.0020 C   0  0  0  0  0  0  0  0  0  0  0  0
   -2.7200    7.4020   -2.3080 C   0  0  0  0  0  0  0  0  0  0  0  0
   -3.8340    7.1660   -3.2820 C   0  0  2  0  0  0  0  0  0  0  0  0
   -5.1480    7.3990   -2.7570 O   0  0  0  0  0  0  0  0  0  0  0  0
   -4.8490    6.0470   -3.1390 C   0  0  0  0  0  0  0  0  0  0  0  0
   -4.7960    5.0880   -1.9900 C   0  0  0  0  0  0  0  0  0  0  0  0
   -5.5850    5.5880   -4.3580 C   0  0  0  0  0  0  0  0  0  0  0  0
   -0.6690   10.0690   -1.9360 C   0  0  1  0  0  0  0  0  0  0  0  0
   -2.1450   10.4310   -1.6260 C   0  0  0  0  0  0  0  0  0  0  0  0
   -2.1170   11.6920   -0.7230 C   0  0  0  0  0  0  0  0  0  0  0  0
   -0.6610   12.2050   -0.8160 C   0  0  1  0  0  0  0  0  0  0  0  0
   -0.6020   13.0070   -2.1540 C   0  0  0  0  0  0  0  0  0  0  0  0
   -0.1500   13.0580    0.3910 C   0  0  2  0  0  0  0  0  0  0  0  0
   -0.9060   14.3770    0.6230 C   0  0  0  0  0  0  0  0  0  0  0  0
   -0.3500   15.5650   -0.0890 C   0  0  0  0  0  0  0  0  0  0  0  0
    0.8710   15.6380   -0.6530 C   0  0  0  0  0  0  0  0  0  0  0  0
    1.8700   14.4820   -0.5200 C   0  0  1  0  0  0  0  0  0  0  0  0
    3.2630   15.0440   -0.1310 C   0  0  0  0  0  0  0  0  0  0  0  0
    3.7470   16.1250   -1.0930 C   0  0  0  0  0  0  0  0  0  0  0  0
    2.7550   17.2840   -1.1540 C   0  0  2  0  0  0  0  0  0  0  0  0
    2.7400   17.9460    0.1140 O   0  0  0  0  0  0  0  0  0  0  0  0
    1.3130   16.8370   -1.5270 C   0  0  0  0  0  0  0  0  0  0  0  0
    1.2720   16.3980   -3.0120 C   0  0  0  0  0  0  0  0  0  0  0  0
    0.3860   18.0770   -1.4150 C   0  0  0  0  0  0  0  0  0  0  0  0
    1.4170   13.2770    0.4130 C   0  0  1  0  0  0  0  0  0  0  0  0
    1.8040   13.5760    1.8940 C   0  0  0  0  0  0  0  0  0  0  0  0
    2.2080   11.9810   -0.0010 C   0  0  0  0  0  0  0  0  0  0  0  0
    1.5920   11.1160   -1.1170 C   0  0  0  0  0  0  0  0  0  0  0  0
    0.1120   10.8360   -0.8390 C   0  0  2  0  0  0  0  0  0  0  0  0
    0.0230   10.0110    0.4900 C   0  0  0  0  0  0  0  0  0  0  0  0
    1.6300    8.1575   -1.5644 H   0  0  0  0  0  0  0  0  0  0  0  0
    1.0332    7.3595   -3.0589 H   0  0  0  0  0  0  0  0  0  0  0  0
    1.3798    9.1220   -3.0589 H   0  0  0  0  0  0  0  0  0  0  0  0
   -0.5937    8.1010   -1.0483 H   0  0  0  0  0  0  0  0  0  0  0  0
   -1.7728    8.7086   -3.7267 H   0  0  0  0  0  0  0  0  0  0  0  0
   -0.9721    7.0829   -3.4831 H   0  0  0  0  0  0  0  0  0  0  0  0
   -2.4730    6.4519   -1.8118 H   0  0  0  0  0  0  0  0  0  0  0  0
   -3.0564    8.1524   -1.5774 H   0  0  0  0  0  0  0  0  0  0  0  0
   -3.1974    7.4817   -4.1217 H   0  0  0  0  0  0  0  0  0  0  0  0
   -4.8269    5.6477   -1.0435 H   0  0  0  0  0  0  0  0  0  0  0  0
   -5.6578    4.4064   -2.0412 H   0  0  0  0  0  0  0  0  0  0  0  0
   -3.8643    4.5055   -2.0412 H   0  0  0  0  0  0  0  0  0  0  0  0
   -6.4824    5.0284   -4.0555 H   0  0  0  0  0  0  0  0  0  0  0  0
   -5.8822    6.4612   -4.9574 H   0  0  0  0  0  0  0  0  0  0  0  0
   -4.9316    4.9370   -4.9574 H   0  0  0  0  0  0  0  0  0  0  0  0
   -0.3162   10.3742   -2.9322 H   0  0  0  0  0  0  0  0  0  0  0  0
   -2.6864   10.6455   -2.5592 H   0  0  0  0  0  0  0  0  0  0  0  0
   -2.6588    9.5977   -1.1244 H   0  0  0  0  0  0  0  0  0  0  0  0
   -2.8209   12.4514   -1.0943 H   0  0  0  0  0  0  0  0  0  0  0  0
   -2.4165   11.4710    0.3121 H   0  0  0  0  0  0  0  0  0  0  0  0
   -0.5229   14.0819   -1.9340 H   0  0  0  0  0  0  0  0  0  0  0  0
    0.2750   12.6862   -2.7354 H   0  0  0  0  0  0  0  0  0  0  0  0
   -1.5165   12.8180   -2.7354 H   0  0  0  0  0  0  0  0  0  0  0  0
   -0.3939   12.4187    1.2523 H   0  0  0  0  0  0  0  0  0  0  0  0
   -1.9448   14.2364    0.2895 H   0  0  0  0  0  0  0  0  0  0  0  0
   -0.8135   14.5955    1.6971 H   0  0  0  0  0  0  0  0  0  0  0  0
   -0.9913   16.4560   -0.1591 H   0  0  0  0  0  0  0  0  0  0  0  0
    1.9209   14.0090   -1.5118 H   0  0  0  0  0  0  0  0  0  0  0  0
    3.2002   15.4737    0.8796 H   0  0  0  0  0  0  0  0  0  0  0  0
    3.9822   14.2128   -0.1734 H   0  0  0  0  0  0  0  0  0  0  0  0
    4.7214   16.5027   -0.7496 H   0  0  0  0  0  0  0  0  0  0  0  0
    3.8373   15.6865   -2.0978 H   0  0  0  0  0  0  0  0  0  0  0  0
    3.0899   17.9628   -1.9522 H   0  0  0  0  0  0  0  0  0  0  0  0
    1.8330   17.8990    0.4600 H   0  0  0  0  0  0  0  0  0  0  0  0
    1.1698   15.3042   -3.0683 H   0  0  0  0  0  0  0  0  0  0  0  0
    0.4143   16.8726   -3.5111 H   0  0  0  0  0  0  0  0  0  0  0  0
    2.2028   16.7055   -3.5111 H   0  0  0  0  0  0  0  0  0  0  0  0
    0.2118   18.3100   -0.3542 H   0  0  0  0  0  0  0  0  0  0  0  0
    0.8640   18.9376   -1.9057 H   0  0  0  0  0  0  0  0  0  0  0  0
   -0.5747   17.8621   -1.9057 H   0  0  0  0  0  0  0  0  0  0  0  0
    1.1157   13.0442    2.5674 H   0  0  0  0  0  0  0  0  0  0  0  0
    2.8337   13.2366    2.0796 H   0  0  0  0  0  0  0  0  0  0  0  0
    1.7355   14.6581    2.0796 H   0  0  0  0  0  0  0  0  0  0  0  0
    3.2074   12.2946   -0.3368 H   0  0  0  0  0  0  0  0  0  0  0  0
    2.2009   11.3421    0.8944 H   0  0  0  0  0  0  0  0  0  0  0  0
    1.6840   11.6468   -2.0761 H   0  0  0  0  0  0  0  0  0  0  0  0
    2.1296   10.1570   -1.1549 H   0  0  0  0  0  0  0  0  0  0  0  0
    0.0965   10.6926    1.3503 H   0  0  0  0  0  0  0  0  0  0  0  0
   -0.9380    9.4769    0.5264 H   0  0  0  0  0  0  0  0  0  0  0  0
    0.8480    9.2843    0.5264 H   0  0  0  0  0  0  0  0  0  0  0  0
  1  2  1  0
  2  3  1  0
  3  4  1  0
  4  5  1  0
  5  6  1  0
  6  7  1  0
  7  8  1  0
  7  9  1  0
  2 10  1  0
 10 11  1  0
 11 12  1  0
 12 13  1  0
 13 14  1  6
 13 15  1  0
 15 16  1  0
 16 17  1  0
 17 18  2  0
 18 19  1  0
 19 20  1  0
 20 21  1  0
 21 22  1  0
 22 23  1  0
 22 24  1  0
 24 25  1  0
 24 26  1  0
 19 27  1  0
 27 28  1  1
 27 29  1  0
 29 30  1  0
 30 31  1  0
 31 32  1  1
  7  5  1  0
 31 10  1  0
 31 13  1  0
 27 15  1  0
 24 18  1  0
  1 33  1  0
  1 34  1  0
  1 35  1  0
  2 36  1  1
  3 37  1  0
  3 38  1  0
  4 39  1  0
  4 40  1  0
  5 41  1  6
  8 42  1  0
  8 43  1  0
  8 44  1  0
  9 45  1  0
  9 46  1  0
  9 47  1  0
 10 48  1  6
 11 49  1  0
 11 50  1  0
 12 51  1  0
 12 52  1  0
 14 53  1  0
 14 54  1  0
 14 55  1  0
 15 56  1  1
 16 57  1  0
 16 58  1  0
 17 59  1  0
 19 60  1  6
 20 61  1  0
 20 62  1  0
 21 63  1  0
 21 64  1  0
 22 65  1  6
 23 66  1  0
 25 67  1  0
 25 68  1  0
 25 69  1  0
 26 70  1  0
 26 71  1  0
 26 72  1  0
 28 73  1  0
 28 74  1  0
 28 75  1  0
 29 76  1  0
 29 77  1  0
 30 78  1  0
 30 79  1  0
 32 80  1  0
 32 81  1  0
 32 82  1  0
M  END
>  <meeko>  (18) 
{"is_sidechain": [false], "intermolecular_energy": 2.731, "internal_energy": -0.839}

$$$$
EPH_relaxed_0001_pdb2pqr_Repair_379_r2_0001_out
     RDKit          3D

 82 86  0  0  0  0  0  0  0  0999 V2000
    3.9340   18.1850   -1.8780 C   0  0  0  0  0  0  0  0  0  0  0  0
    2.6990   17.4020   -2.3330 C   0  0  2  0  0  0  0  0  0  0  0  0
    1.3890   18.1580   -2.0320 C   0  0  0  0  0  0  0  0  0  0  0  0
    1.5830   19.4080   -1.1700 C   0  0  0  0  0  0  0  0  0  0  0  0
    1.7120   19.0640    0.2840 C   0  0  2  0  0  0  0  0  0  0  0  0
    1.6900   20.1910    1.1690 O   0  0  0  0  0  0  0  0  0  0  0  0
    2.9140   19.4400    1.1290 C   0  0  0  0  0  0  0  0  0  0  0  0
    4.0710   20.1930    0.5500 C   0  0  0  0  0  0  0  0  0  0  0  0
    3.1830   18.6590    2.3780 C   0  0  0  0  0  0  0  0  0  0  0  0
    2.6760   16.0330   -1.6630 C   0  0  1  0  0  0  0  0  0  0  0  0
    3.1300   16.0860   -0.1800 C   0  0  0  0  0  0  0  0  0  0  0  0
    2.2910   15.0270    0.5820 C   0  0  0  0  0  0  0  0  0  0  0  0
    1.6300   14.1790   -0.5290 C   0  0  1  0  0  0  0  0  0  0  0  0
    2.7340   13.1690   -0.9730 C   0  0  0  0  0  0  0  0  0  0  0  0
    0.3020   13.4510   -0.1440 C   0  0  2  0  0  0  0  0  0  0  0  0
    0.4320   12.4050    0.9760 C   0  0  0  0  0  0  0  0  0  0  0  0
    0.7330   11.0150    0.5200 C   0  0  0  0  0  0  0  0  0  0  0  0
    0.6120   10.5630   -0.7410 C   0  0  0  0  0  0  0  0  0  0  0  0
    0.0380   11.4580   -1.8470 C   0  0  1  0  0  0  0  0  0  0  0  0
   -1.0100   10.6600   -2.6670 C   0  0  0  0  0  0  0  0  0  0  0  0
   -0.4530    9.3470   -3.2090 C   0  0  0  0  0  0  0  0  0  0  0  0
    0.0540    8.4610   -2.0750 C   0  0  2  0  0  0  0  0  0  0  0  0
   -1.0600    8.0480   -1.2780 O   0  0  0  0  0  0  0  0  0  0  0  0
    1.1090    9.1620   -1.1740 C   0  0  0  0  0  0  0  0  0  0  0  0
    2.4320    9.3370   -1.9620 C   0  0  0  0  0  0  0  0  0  0  0  0
    1.4320    8.2120    0.0100 C   0  0  0  0  0  0  0  0  0  0  0  0
   -0.5040   12.8770   -1.3800 C   0  0  1  0  0  0  0  0  0  0  0  0
   -1.9900   12.7540   -0.9240 C   0  0  0  0  0  0  0  0  0  0  0  0
   -0.4960   13.8610   -2.6090 C   0  0  0  0  0  0  0  0  0  0  0  0
    0.8070   14.6410   -2.8660 C   0  0  0  0  0  0  0  0  0  0  0  0
    1.3110   15.3040   -1.5800 C   0  0  2  0  0  0  0  0  0  0  0  0
    0.2310   16.3430   -1.1220 C   0  0  0  0  0  0  0  0  0  0  0  0
    3.9695   18.2075   -0.7788 H   0  0  0  0  0  0  0  0  0  0  0  0
    4.8407   17.6964   -2.2642 H   0  0  0  0  0  0  0  0  0  0  0  0
    3.8789   19.2135   -2.2642 H   0  0  0  0  0  0  0  0  0  0  0  0
    2.7671   17.2809   -3.4242 H   0  0  0  0  0  0  0  0  0  0  0  0
    0.9363   18.4620   -2.9873 H   0  0  0  0  0  0  0  0  0  0  0  0
    0.7458   17.4715   -1.4619 H   0  0  0  0  0  0  0  0  0  0  0  0
    2.4961   19.9276   -1.4958 H   0  0  0  0  0  0  0  0  0  0  0  0
    0.6987   20.0505   -1.2934 H   0  0  0  0  0  0  0  0  0  0  0  0
    1.1894   18.1086    0.1289 H   0  0  0  0  0  0  0  0  0  0  0  0
    4.6906   20.5962    1.3646 H   0  0  0  0  0  0  0  0  0  0  0  0
    4.6762   19.5153   -0.0700 H   0  0  0  0  0  0  0  0  0  0  0  0
    3.6964   21.0208   -0.0700 H   0  0  0  0  0  0  0  0  0  0  0  0
    2.9672   19.2856    3.2559 H   0  0  0  0  0  0  0  0  0  0  0  0
    2.5405   17.7663    2.3978 H   0  0  0  0  0  0  0  0  0  0  0  0
    4.2389   18.3513    2.3978 H   0  0  0  0  0  0  0  0  0  0  0  0
    3.3534   15.4872   -2.3362 H   0  0  0  0  0  0  0  0  0  0  0  0
    4.2012   15.8479   -0.1029 H   0  0  0  0  0  0  0  0  0  0  0  0
    2.9791   17.0897    0.2440 H   0  0  0  0  0  0  0  0  0  0  0  0
    2.9376   14.4015    1.2149 H   0  0  0  0  0  0  0  0  0  0  0  0
    1.5498   15.4862    1.2526 H   0  0  0  0  0  0  0  0  0  0  0  0
    3.2110   12.7326   -0.0831 H   0  0  0  0  0  0  0  0  0  0  0  0
    2.2783   12.3686   -1.5744 H   0  0  0  0  0  0  0  0  0  0  0  0
    3.4908   13.6940   -1.5744 H   0  0  0  0  0  0  0  0  0  0  0  0
   -0.3006   14.2681    0.2793 H   0  0  0  0  0  0  0  0  0  0  0  0
    1.2423   12.7252    1.6475 H   0  0  0  0  0  0  0  0  0  0  0  0
   -0.5527   12.3583    1.4640 H   0  0  0  0  0  0  0  0  0  0  0  0
    1.0832   10.3006    1.2796 H   0  0  0  0  0  0  0  0  0  0  0  0
    0.8880   11.7289   -2.4905 H   0  0  0  0  0  0  0  0  0  0  0  0
   -1.8698   10.4371   -2.0182 H   0  0  0  0  0  0  0  0  0  0  0  0
   -1.3020   11.2793   -3.5279 H   0  0  0  0  0  0  0  0  0  0  0  0
   -1.2479    8.8159   -3.7531 H   0  0  0  0  0  0  0  0  0  0  0  0
    0.3879    9.5729   -3.8812 H   0  0  0  0  0  0  0  0  0  0  0  0
    0.5570    7.5965   -2.5329 H   0  0  0  0  0  0  0  0  0  0  0  0
   -1.7300    7.6780   -1.8780 H   0  0  0  0  0  0  0  0  0  0  0  0
    3.2678    9.4476   -1.2554 H   0  0  0  0  0  0  0  0  0  0  0  0
    2.6014    8.4534   -2.5949 H   0  0  0  0  0  0  0  0  0  0  0  0
    2.3659   10.2342   -2.5949 H   0  0  0  0  0  0  0  0  0  0  0  0
    1.2536    8.7366    0.9602 H   0  0  0  0  0  0  0  0  0  0  0  0
    0.7853    7.3239   -0.0455 H   0  0  0  0  0  0  0  0  0  0  0  0
    2.4860    7.9021   -0.0455 H   0  0  0  0  0  0  0  0  0  0  0  0
   -2.0372   12.7501    0.1750 H   0  0  0  0  0  0  0  0  0  0  0  0
   -2.5647   13.6076   -1.3126 H   0  0  0  0  0  0  0  0  0  0  0  0
   -2.4165   11.8175   -1.3126 H   0  0  0  0  0  0  0  0  0  0  0  0
   -0.7128   13.2692   -3.5105 H   0  0  0  0  0  0  0  0  0  0  0  0
   -1.2475   14.6275   -2.3688 H   0  0  0  0  0  0  0  0  0  0  0  0
    1.5748   13.9466   -3.2378 H   0  0  0  0  0  0  0  0  0  0  0  0
    0.6055   15.4258   -3.6099 H   0  0  0  0  0  0  0  0  0  0  0  0
    0.1967   16.3760   -0.0230 H   0  0  0  0  0  0  0  0  0  0  0  0
    0.4918   17.3384   -1.5107 H   0  0  0  0  0  0  0  0  0  0  0  0
   -0.7536   16.0439   -1.5107 H   0  0  0  0  0  0  0  0  0  0  0  0
  1  2  1  0
  2  3  1  0
  3  4  1  0
  4  5  1  0
  5  6  1  0
  6  7  1  0
  7  8  1  0
  7  9  1  0
  2 10  1  0
 10 11  1  0
 11 12  1  0
 12 13  1  0
 13 14  1  6
 13 15  1  0
 15 16  1  0
 16 17  1  0
 17 18  2  0
 18 19  1  0
 19 20  1  0
 20 21  1  0
 21 22  1  0
 22 23  1  0
 22 24  1  0
 24 25  1  0
 24 26  1  0
 19 27  1  0
 27 28  1  1
 27 29  1  0
 29 30  1  0
 30 31  1  0
 31 32  1  1
  7  5  1  0
 31 10  1  0
 31 13  1  0
 27 15  1  0
 24 18  1  0
  1 33  1  0
  1 34  1  0
  1 35  1  0
  2 36  1  6
  3 37  1  0
  3 38  1  0
  4 39  1  0
  4 40  1  0
  5 41  1  1
  8 42  1  0
  8 43  1  0
  8 44  1  0
  9 45  1  0
  9 46  1  0
  9 47  1  0
 10 48  1  6
 11 49  1  0
 11 50  1  0
 12 51  1  0
 12 52  1  0
 14 53  1  0
 14 54  1  0
 14 55  1  0
 15 56  1  1
 16 57  1  0
 16 58  1  0
 17 59  1  0
 19 60  1  6
 20 61  1  0
 20 62  1  0
 21 63  1  0
 21 64  1  0
 22 65  1  6
 23 66  1  0
 25 67  1  0
 25 68  1  0
 25 69  1  0
 26 70  1  0
 26 71  1  0
 26 72  1  0
 28 73  1  0
 28 74  1  0
 28 75  1  0
 29 76  1  0
 29 77  1  0
 30 78  1  0
 30 79  1  0
 32 80  1  0
 32 81  1  0
 32 82  1  0
M  END
>  <meeko>  (19) 
{"is_sidechain": [false], "intermolecular_energy": 2.731, "internal_energy": -0.839}

$$$$
