EPH_relaxed_0001_pdb2pqr_Repair_282_r2_0001_out
     RDKit          3D

 82 86  0  0  0  0  0  0  0  0999 V2000
   -1.7110    8.5830   -1.8740 C   0  0  0  0  0  0  0  0  0  0  0  0
   -2.0930    9.1050   -0.4850 C   0  0  2  0  0  0  0  0  0  0  0  0
   -3.5870    9.4700   -0.3920 C   0  0  0  0  0  0  0  0  0  0  0  0
   -4.5090    8.2580   -0.2370 C   0  0  0  0  0  0  0  0  0  0  0  0
   -5.2090    7.9260   -1.5200 C   0  0  2  0  0  0  0  0  0  0  0  0
   -6.3530    8.7420   -1.8070 O   0  0  0  0  0  0  0  0  0  0  0  0
   -6.6100    7.3460   -1.5830 C   0  0  0  0  0  0  0  0  0  0  0  0
   -7.3940    7.0630   -0.3400 C   0  0  0  0  0  0  0  0  0  0  0  0
   -7.0220    6.6040   -2.8170 C   0  0  0  0  0  0  0  0  0  0  0  0
   -1.2370   10.3150   -0.1320 C   0  0  1  0  0  0  0  0  0  0  0  0
   -0.2120   10.0150    0.9940 C   0  0  0  0  0  0  0  0  0  0  0  0
    1.0590   10.8440    0.6750 C   0  0  0  0  0  0  0  0  0  0  0  0
    0.6110   11.8370   -0.4220 C   0  0  1  0  0  0  0  0  0  0  0  0
   -0.1020   12.9920    0.3480 C   0  0  0  0  0  0  0  0  0  0  0  0
    1.7360   12.3790   -1.3640 C   0  0  2  0  0  0  0  0  0  0  0  0
    2.8340   13.1990   -0.6640 C   0  0  0  0  0  0  0  0  0  0  0  0
    2.5800   14.6680   -0.5850 C   0  0  0  0  0  0  0  0  0  0  0  0
    1.6610   15.3420   -1.3010 C   0  0  0  0  0  0  0  0  0  0  0  0
    0.8240   14.6340   -2.3740 C   0  0  1  0  0  0  0  0  0  0  0  0
    0.8030   15.4940   -3.6650 C   0  0  0  0  0  0  0  0  0  0  0  0
    0.3360   16.9230   -3.4090 C   0  0  0  0  0  0  0  0  0  0  0  0
    1.2280   17.6130   -2.3800 C   0  0  2  0  0  0  0  0  0  0  0  0
    2.5330   17.7830   -2.9410 O   0  0  0  0  0  0  0  0  0  0  0  0
    1.3330   16.8330   -1.0390 C   0  0  0  0  0  0  0  0  0  0  0  0
   -0.0180   16.9090   -0.2860 C   0  0  0  0  0  0  0  0  0  0  0  0
    2.3720   17.5610   -0.1440 C   0  0  0  0  0  0  0  0  0  0  0  0
    1.1990   13.1160   -2.6570 C   0  0  1  0  0  0  0  0  0  0  0  0
    2.3390   13.0390   -3.7190 C   0  0  0  0  0  0  0  0  0  0  0  0
   -0.0460   12.3880   -3.2880 C   0  0  0  0  0  0  0  0  0  0  0  0
   -1.0600   11.7690   -2.3070 C   0  0  0  0  0  0  0  0  0  0  0  0
   -0.3510   10.9120   -1.2540 C   0  0  2  0  0  0  0  0  0  0  0  0
    0.3570    9.7290   -1.9970 C   0  0  0  0  0  0  0  0  0  0  0  0
   -1.0644    7.6994   -1.7686 H   0  0  0  0  0  0  0  0  0  0  0  0
   -2.6220    8.3070   -2.4253 H   0  0  0  0  0  0  0  0  0  0  0  0
   -1.1724    9.3678   -2.4253 H   0  0  0  0  0  0  0  0  0  0  0  0
   -1.9070    8.2952    0.2358 H   0  0  0  0  0  0  0  0  0  0  0  0
   -3.7300   10.1283    0.4776 H   0  0  0  0  0  0  0  0  0  0  0  0
   -3.8573    9.9600   -1.3390 H   0  0  0  0  0  0  0  0  0  0  0  0
   -3.9086    7.3911    0.0761 H   0  0  0  0  0  0  0  0  0  0  0  0
   -5.2722    8.5020    0.5167 H   0  0  0  0  0  0  0  0  0  0  0  0
   -4.2609    7.6173   -1.9846 H   0  0  0  0  0  0  0  0  0  0  0  0
   -6.7759    7.2861    0.5421 H   0  0  0  0  0  0  0  0  0  0  0  0
   -8.2961    7.6922   -0.3243 H   0  0  0  0  0  0  0  0  0  0  0  0
   -7.6862    6.0026   -0.3243 H   0  0  0  0  0  0  0  0  0  0  0  0
   -7.5377    5.6753   -2.5314 H   0  0  0  0  0  0  0  0  0  0  0  0
   -7.7007    7.2319   -3.4130 H   0  0  0  0  0  0  0  0  0  0  0  0
   -6.1302    6.3599   -3.4130 H   0  0  0  0  0  0  0  0  0  0  0  0
   -2.0299   11.0271    0.1404 H   0  0  0  0  0  0  0  0  0  0  0  0
   -0.6234   10.3127    1.9698 H   0  0  0  0  0  0  0  0  0  0  0  0
    0.0191    8.9406    1.0416 H   0  0  0  0  0  0  0  0  0  0  0  0
    1.4056   11.3832    1.5690 H   0  0  0  0  0  0  0  0  0  0  0  0
    1.8983   10.2123    0.3487 H   0  0  0  0  0  0  0  0  0  0  0  0
   -0.0007   12.8279    1.4310 H   0  0  0  0  0  0  0  0  0  0  0  0
    0.3603   13.9529    0.0779 H   0  0  0  0  0  0  0  0  0  0  0  0
   -1.1682   13.0093    0.0779 H   0  0  0  0  0  0  0  0  0  0  0  0
    2.2252   11.4544   -1.7041 H   0  0  0  0  0  0  0  0  0  0  0  0
    2.9417   12.8170    0.3619 H   0  0  0  0  0  0  0  0  0  0  0  0
    3.7402   13.0792   -1.2760 H   0  0  0  0  0  0  0  0  0  0  0  0
    3.1959   15.2485    0.1176 H   0  0  0  0  0  0  0  0  0  0  0  0
   -0.1930   14.5538   -1.9625 H   0  0  0  0  0  0  0  0  0  0  0  0
    1.8194   15.5251   -4.0844 H   0  0  0  0  0  0  0  0  0  0  0  0
    0.0906   15.0303   -4.3632 H   0  0  0  0  0  0  0  0  0  0  0  0
    0.3715   17.4877   -4.3523 H   0  0  0  0  0  0  0  0  0  0  0  0
   -0.6916   16.8915   -3.0177 H   0  0  0  0  0  0  0  0  0  0  0  0
    0.7681   18.5838   -2.1431 H   0  0  0  0  0  0  0  0  0  0  0  0
    2.9650   16.9120   -2.9500 H   0  0  0  0  0  0  0  0  0  0  0  0
    0.1656   16.8987    0.7985 H   0  0  0  0  0  0  0  0  0  0  0  0
   -0.5392   17.8379   -0.5608 H   0  0  0  0  0  0  0  0  0  0  0  0
   -0.6401   16.0444   -0.5608 H   0  0  0  0  0  0  0  0  0  0  0  0
    2.1278   17.3899    0.9148 H   0  0  0  0  0  0  0  0  0  0  0  0
    3.3776   17.1689   -0.3563 H   0  0  0  0  0  0  0  0  0  0  0  0
    2.3468   18.6400   -0.3563 H   0  0  0  0  0  0  0  0  0  0  0  0
    3.3114   12.9733   -3.2090 H   0  0  0  0  0  0  0  0  0  0  0  0
    2.1942   12.1486   -4.3484 H   0  0  0  0  0  0  0  0  0  0  0  0
    2.3153   13.9408   -4.3484 H   0  0  0  0  0  0  0  0  0  0  0  0
   -0.5848   13.1235   -3.9034 H   0  0  0  0  0  0  0  0  0  0  0  0
    0.3709   11.5367   -3.8461 H   0  0  0  0  0  0  0  0  0  0  0  0
   -1.6113   12.5761   -1.8024 H   0  0  0  0  0  0  0  0  0  0  0  0
   -1.7503   11.1276   -2.8744 H   0  0  0  0  0  0  0  0  0  0  0  0
    0.7754    9.0299   -1.2580 H   0  0  0  0  0  0  0  0  0  0  0  0
   -0.3742    9.2019   -2.6274 H   0  0  0  0  0  0  0  0  0  0  0  0
    1.1671   10.1244   -2.6274 H   0  0  0  0  0  0  0  0  0  0  0  0
  1  2  1  0
  2  3  1  0
  3  4  1  0
  4  5  1  0
  5  6  1  0
  6  7  1  0
  7  8  1  0
  7  9  1  0
  2 10  1  0
 10 11  1  0
 11 12  1  0
 12 13  1  0
 13 14  1  1
 13 15  1  0
 15 16  1  0
 16 17  1  0
 17 18  2  0
 18 19  1  0
 19 20  1  0
 20 21  1  0
 21 22  1  0
 22 23  1  0
 22 24  1  0
 24 25  1  0
 24 26  1  0
 19 27  1  0
 27 28  1  6
 27 29  1  0
 29 30  1  0
 30 31  1  0
 31 32  1  6
  7  5  1  0
 31 10  1  0
 31 13  1  0
 27 15  1  0
 24 18  1  0
  1 33  1  0
  1 34  1  0
  1 35  1  0
  2 36  1  1
  3 37  1  0
  3 38  1  0
  4 39  1  0
  4 40  1  0
  5 41  1  6
  8 42  1  0
  8 43  1  0
  8 44  1  0
  9 45  1  0
  9 46  1  0
  9 47  1  0
 10 48  1  1
 11 49  1  0
 11 50  1  0
 12 51  1  0
 12 52  1  0
 14 53  1  0
 14 54  1  0
 14 55  1  0
 15 56  1  6
 16 57  1  0
 16 58  1  0
 17 59  1  0
 19 60  1  1
 20 61  1  0
 20 62  1  0
 21 63  1  0
 21 64  1  0
 22 65  1  1
 23 66  1  0
 25 67  1  0
 25 68  1  0
 25 69  1  0
 26 70  1  0
 26 71  1  0
 26 72  1  0
 28 73  1  0
 28 74  1  0
 28 75  1  0
 29 76  1  0
 29 77  1  0
 30 78  1  0
 30 79  1  0
 32 80  1  0
 32 81  1  0
 32 82  1  0
M  END
>  <meeko>  (1) 
{"is_sidechain": [false], "intermolecular_energy": 2.731, "internal_energy": -0.839}

$$$$
EPH_relaxed_0001_pdb2pqr_Repair_282_r2_0001_out
     RDKit          3D

 82 86  0  0  0  0  0  0  0  0999 V2000
    1.9270   19.6780   -0.5770 C   0  0  0  0  0  0  0  0  0  0  0  0
    2.3400   18.4480    0.2360 C   0  0  2  0  0  0  0  0  0  0  0  0
    3.7940   18.0220   -0.0520 C   0  0  0  0  0  0  0  0  0  0  0  0
    4.7290   18.1730    1.1500 C   0  0  0  0  0  0  0  0  0  0  0  0
    4.1040   18.9900    2.2400 C   0  0  2  0  0  0  0  0  0  0  0  0
    4.8640   20.1380    2.6390 O   0  0  0  0  0  0  0  0  0  0  0  0
    4.6910   19.1150    3.6340 C   0  0  0  0  0  0  0  0  0  0  0  0
    5.9580   18.4140    4.0120 C   0  0  0  0  0  0  0  0  0  0  0  0
    3.7870   19.5140    4.7580 C   0  0  0  0  0  0  0  0  0  0  0  0
    1.3910   17.2910   -0.0540 C   0  0  1  0  0  0  0  0  0  0  0  0
    0.1250   17.7380   -0.8320 C   0  0  0  0  0  0  0  0  0  0  0  0
   -0.2490   16.5740   -1.7850 C   0  0  0  0  0  0  0  0  0  0  0  0
    0.6020   15.3790   -1.2930 C   0  0  1  0  0  0  0  0  0  0  0  0
   -0.1840   14.8010   -0.0750 C   0  0  0  0  0  0  0  0  0  0  0  0
    0.9180   14.2740   -2.3530 C   0  0  2  0  0  0  0  0  0  0  0  0
   -0.3110   13.5390   -2.9160 C   0  0  0  0  0  0  0  0  0  0  0  0
   -0.7180   12.3120   -2.1700 C   0  0  0  0  0  0  0  0  0  0  0  0
    0.0370   11.6590   -1.2680 C   0  0  0  0  0  0  0  0  0  0  0  0
    1.4830   12.0910   -0.9900 C   0  0  1  0  0  0  0  0  0  0  0  0
    2.4040   10.8430   -0.9780 C   0  0  0  0  0  0  0  0  0  0  0  0
    1.9190    9.7680   -0.0090 C   0  0  0  0  0  0  0  0  0  0  0  0
    0.5010    9.3230   -0.3530 C   0  0  2  0  0  0  0  0  0  0  0  0
    0.5220    8.6500   -1.6160 O   0  0  0  0  0  0  0  0  0  0  0  0
   -0.5150   10.4980   -0.4050 C   0  0  0  0  0  0  0  0  0  0  0  0
   -0.7650   11.0330    1.0270 C   0  0  0  0  0  0  0  0  0  0  0  0
   -1.8740    9.9330   -0.9000 C   0  0  0  0  0  0  0  0  0  0  0  0
    2.0470   13.2570   -1.9110 C   0  0  1  0  0  0  0  0  0  0  0  0
    2.6440   12.6580   -3.2210 C   0  0  0  0  0  0  0  0  0  0  0  0
    3.2370   13.9700   -1.1670 C   0  0  0  0  0  0  0  0  0  0  0  0
    2.8700   15.1330   -0.2250 C   0  0  0  0  0  0  0  0  0  0  0  0
    1.9330   16.1260   -0.9190 C   0  0  2  0  0  0  0  0  0  0  0  0
    2.7050   16.7400   -2.1360 C   0  0  0  0  0  0  0  0  0  0  0  0
    1.6528   20.4946    0.1071 H   0  0  0  0  0  0  0  0  0  0  0  0
    2.7672   19.9974   -1.2111 H   0  0  0  0  0  0  0  0  0  0  0  0
    1.0643   19.4257   -1.2111 H   0  0  0  0  0  0  0  0  0  0  0  0
    2.2809   18.7199    1.3002 H   0  0  0  0  0  0  0  0  0  0  0  0
    3.7919   16.9659   -0.3598 H   0  0  0  0  0  0  0  0  0  0  0  0
    4.1740   18.6883   -0.8404 H   0  0  0  0  0  0  0  0  0  0  0  0
    4.9661   17.1740    1.5447 H   0  0  0  0  0  0  0  0  0  0  0  0
    5.6394   18.6904    0.8131 H   0  0  0  0  0  0  0  0  0  0  0  0
    3.0948   18.7342    1.8848 H   0  0  0  0  0  0  0  0  0  0  0  0
    6.0392   18.3691    5.1081 H   0  0  0  0  0  0  0  0  0  0  0  0
    5.9482   17.3930    3.6029 H   0  0  0  0  0  0  0  0  0  0  0  0
    6.8178   18.9647    3.6029 H   0  0  0  0  0  0  0  0  0  0  0  0
    4.2781   19.2972    5.7181 H   0  0  0  0  0  0  0  0  0  0  0  0
    3.5719   20.5907    4.6910 H   0  0  0  0  0  0  0  0  0  0  0  0
    2.8466   18.9473    4.6910 H   0  0  0  0  0  0  0  0  0  0  0  0
    1.2060   16.9426    0.9729 H   0  0  0  0  0  0  0  0  0  0  0  0
   -0.7003   17.9342   -0.1317 H   0  0  0  0  0  0  0  0  0  0  0  0
    0.3140   18.6639   -1.3950 H   0  0  0  0  0  0  0  0  0  0  0  0
   -1.3220   16.3425   -1.7131 H   0  0  0  0  0  0  0  0  0  0  0  0
   -0.0544   16.8189   -2.8396 H   0  0  0  0  0  0  0  0  0  0  0  0
    0.2834   15.1447    0.8595 H   0  0  0  0  0  0  0  0  0  0  0  0
   -1.2268   15.1490   -0.1130 H   0  0  0  0  0  0  0  0  0  0  0  0
   -0.1626   13.7019   -0.1130 H   0  0  0  0  0  0  0  0  0  0  0  0
    1.3250   14.8597   -3.1905 H   0  0  0  0  0  0  0  0  0  0  0  0
   -1.1593   14.2392   -2.9069 H   0  0  0  0  0  0  0  0  0  0  0  0
   -0.0282   13.2020   -3.9242 H   0  0  0  0  0  0  0  0  0  0  0  0
   -1.7201   11.9073   -2.3751 H   0  0  0  0  0  0  0  0  0  0  0  0
    1.4746   12.5573    0.0062 H   0  0  0  0  0  0  0  0  0  0  0  0
    2.4338   10.4168   -1.9916 H   0  0  0  0  0  0  0  0  0  0  0  0
    3.4014   11.1669   -0.6460 H   0  0  0  0  0  0  0  0  0  0  0  0
    2.5927    8.9004   -0.0674 H   0  0  0  0  0  0  0  0  0  0  0  0
    1.9183   10.1869    1.0081 H   0  0  0  0  0  0  0  0  0  0  0  0
    0.1631    8.6513    0.4499 H   0  0  0  0  0  0  0  0  0  0  0  0
   -0.3960    8.5800   -1.9280 H   0  0  0  0  0  0  0  0  0  0  0  0
   -0.4183   10.2910    1.7613 H   0  0  0  0  0  0  0  0  0  0  0  0
   -0.2134   11.9742    1.1683 H   0  0  0  0  0  0  0  0  0  0  0  0
   -1.8408   11.2137    1.1683 H   0  0  0  0  0  0  0  0  0  0  0  0
   -2.5002    9.6727   -0.0339 H   0  0  0  0  0  0  0  0  0  0  0  0
   -2.3871   10.6924   -1.5084 H   0  0  0  0  0  0  0  0  0  0  0  0
   -1.6975    9.0337   -1.5084 H   0  0  0  0  0  0  0  0  0  0  0  0
    3.3995   11.9000   -2.9666 H   0  0  0  0  0  0  0  0  0  0  0  0
    1.8407   12.1917   -3.8103 H   0  0  0  0  0  0  0  0  0  0  0  0
    3.1130   13.4597   -3.8103 H   0  0  0  0  0  0  0  0  0  0  0  0
    3.7591   13.2089   -0.5685 H   0  0  0  0  0  0  0  0  0  0  0  0
    3.8433   14.4253   -1.9639 H   0  0  0  0  0  0  0  0  0  0  0  0
    2.3692   14.7291    0.6672 H   0  0  0  0  0  0  0  0  0  0  0  0
    3.7932   15.6604    0.0571 H   0  0  0  0  0  0  0  0  0  0  0  0
    3.5163   17.3852   -1.7678 H   0  0  0  0  0  0  0  0  0  0  0  0
    3.1295   15.9300   -2.7474 H   0  0  0  0  0  0  0  0  0  0  0  0
    2.0113   17.3359   -2.7474 H   0  0  0  0  0  0  0  0  0  0  0  0
  1  2  1  0
  2  3  1  0
  3  4  1  0
  4  5  1  0
  5  6  1  0
  6  7  1  0
  7  8  1  0
  7  9  1  0
  2 10  1  0
 10 11  1  0
 11 12  1  0
 12 13  1  0
 13 14  1  1
 13 15  1  0
 15 16  1  0
 16 17  1  0
 17 18  2  0
 18 19  1  0
 19 20  1  0
 20 21  1  0
 21 22  1  0
 22 23  1  0
 22 24  1  0
 24 25  1  0
 24 26  1  0
 19 27  1  0
 27 28  1  6
 27 29  1  0
 29 30  1  0
 30 31  1  0
 31 32  1  6
  7  5  1  0
 31 10  1  0
 31 13  1  0
 27 15  1  0
 24 18  1  0
  1 33  1  0
  1 34  1  0
  1 35  1  0
  2 36  1  1
  3 37  1  0
  3 38  1  0
  4 39  1  0
  4 40  1  0
  5 41  1  1
  8 42  1  0
  8 43  1  0
  8 44  1  0
  9 45  1  0
  9 46  1  0
  9 47  1  0
 10 48  1  1
 11 49  1  0
 11 50  1  0
 12 51  1  0
 12 52  1  0
 14 53  1  0
 14 54  1  0
 14 55  1  0
 15 56  1  6
 16 57  1  0
 16 58  1  0
 17 59  1  0
 19 60  1  1
 20 61  1  0
 20 62  1  0
 21 63  1  0
 21 64  1  0
 22 65  1  1
 23 66  1  0
 25 67  1  0
 25 68  1  0
 25 69  1  0
 26 70  1  0
 26 71  1  0
 26 72  1  0
 28 73  1  0
 28 74  1  0
 28 75  1  0
 29 76  1  0
 29 77  1  0
 30 78  1  0
 30 79  1  0
 32 80  1  0
 32 81  1  0
 32 82  1  0
M  END
>  <meeko>  (2) 
{"is_sidechain": [false], "intermolecular_energy": 2.731, "internal_energy": -0.839}

$$$$
EPH_relaxed_0001_pdb2pqr_Repair_282_r2_0001_out
     RDKit          3D

 82 86  0  0  0  0  0  0  0  0999 V2000
    2.4160   17.9380   -2.6940 C   0  0  0  0  0  0  0  0  0  0  0  0
    1.0750   17.6180   -2.0270 C   0  0  2  0  0  0  0  0  0  0  0  0
    1.1530   17.7180   -0.4900 C   0  0  0  0  0  0  0  0  0  0  0  0
    0.8460   19.1160    0.0520 C   0  0  0  0  0  0  0  0  0  0  0  0
   -0.5900   19.2490    0.4610 C   0  0  2  0  0  0  0  0  0  0  0  0
   -1.4640   18.2560   -0.0910 O   0  0  0  0  0  0  0  0  0  0  0  0
   -1.7040   19.6110   -0.5040 C   0  0  0  0  0  0  0  0  0  0  0  0
   -1.4300   19.8640   -1.9530 C   0  0  0  0  0  0  0  0  0  0  0  0
   -2.9670   20.1940    0.0480 C   0  0  0  0  0  0  0  0  0  0  0  0
    0.6100   16.2260   -2.4360 C   0  0  1  0  0  0  0  0  0  0  0  0
    0.6760   16.0000   -3.9700 C   0  0  0  0  0  0  0  0  0  0  0  0
    1.0630   14.5140   -4.1870 C   0  0  0  0  0  0  0  0  0  0  0  0
    0.8820   13.8570   -2.7990 C   0  0  1  0  0  0  0  0  0  0  0  0
   -0.6490   13.5730   -2.6860 C   0  0  0  0  0  0  0  0  0  0  0  0
    1.7290   12.5710   -2.5270 C   0  0  2  0  0  0  0  0  0  0  0  0
    1.4220   11.3800   -3.4520 C   0  0  0  0  0  0  0  0  0  0  0  0
    0.3650   10.4480   -2.9600 C   0  0  0  0  0  0  0  0  0  0  0  0
   -0.1100   10.3970   -1.7020 C   0  0  0  0  0  0  0  0  0  0  0  0
    0.4930   11.2730   -0.5960 C   0  0  1  0  0  0  0  0  0  0  0  0
    0.7380   10.4120    0.6710 C   0  0  0  0  0  0  0  0  0  0  0  0
   -0.5180    9.6760    1.1290 C   0  0  0  0  0  0  0  0  0  0  0  0
   -1.0540    8.7710    0.0230 C   0  0  2  0  0  0  0  0  0  0  0  0
   -0.1130    7.7180   -0.2080 O   0  0  0  0  0  0  0  0  0  0  0  0
   -1.3290    9.5270   -1.3070 C   0  0  0  0  0  0  0  0  0  0  0  0
   -2.5550   10.4580   -1.1330 C   0  0  0  0  0  0  0  0  0  0  0  0
   -1.7300    8.4770   -2.3790 C   0  0  0  0  0  0  0  0  0  0  0  0
    1.7670   12.1290   -1.0080 C   0  0  1  0  0  0  0  0  0  0  0  0
    3.0610   11.2790   -0.8240 C   0  0  0  0  0  0  0  0  0  0  0  0
    1.8990   13.3570   -0.0310 C   0  0  0  0  0  0  0  0  0  0  0  0
    1.1340   14.6370   -0.4160 C   0  0  0  0  0  0  0  0  0  0  0  0
    1.4020   15.0180   -1.8750 C   0  0  2  0  0  0  0  0  0  0  0  0
    2.9310   15.3310   -2.0140 C   0  0  0  0  0  0  0  0  0  0  0  0
    3.1764   18.1194   -1.9201 H   0  0  0  0  0  0  0  0  0  0  0  0
    2.7259   17.0886   -3.3205 H   0  0  0  0  0  0  0  0  0  0  0  0
    2.3089   18.8358   -3.3205 H   0  0  0  0  0  0  0  0  0  0  0  0
    0.3471   18.3680   -2.3700 H   0  0  0  0  0  0  0  0  0  0  0  0
    0.4284   17.0115   -0.0588 H   0  0  0  0  0  0  0  0  0  0  0  0
    2.1891   17.4830   -0.2048 H   0  0  0  0  0  0  0  0  0  0  0  0
    1.4850   19.3075    0.9267 H   0  0  0  0  0  0  0  0  0  0  0  0
    1.0437   19.8449   -0.7478 H   0  0  0  0  0  0  0  0  0  0  0  0
   -0.2984   19.6594    1.4390 H   0  0  0  0  0  0  0  0  0  0  0  0
   -0.6250   20.6073   -2.0496 H   0  0  0  0  0  0  0  0  0  0  0  0
   -1.1225   18.9255   -2.4373 H   0  0  0  0  0  0  0  0  0  0  0  0
   -2.3411   20.2452   -2.4373 H   0  0  0  0  0  0  0  0  0  0  0  0
   -2.9291   20.1765    1.1472 H   0  0  0  0  0  0  0  0  0  0  0  0
   -3.0737   21.2325   -0.2987 H   0  0  0  0  0  0  0  0  0  0  0  0
   -3.8265   19.6015   -0.2987 H   0  0  0  0  0  0  0  0  0  0  0  0
   -0.4053   16.2396   -2.0129 H   0  0  0  0  0  0  0  0  0  0  0  0
   -0.3035   16.2068   -4.4259 H   0  0  0  0  0  0  0  0  0  0  0  0
    1.4112   16.6719   -4.4370 H   0  0  0  0  0  0  0  0  0  0  0  0
    0.3999   14.0443   -4.9284 H   0  0  0  0  0  0  0  0  0  0  0  0
    2.0876   14.4016   -4.5713 H   0  0  0  0  0  0  0  0  0  0  0  0
   -0.9348   13.5200   -1.6251 H   0  0  0  0  0  0  0  0  0  0  0  0
   -1.2093   14.3825   -3.1766 H   0  0  0  0  0  0  0  0  0  0  0  0
   -0.8817   12.6164   -3.1766 H   0  0  0  0  0  0  0  0  0  0  0  0
    2.7459   12.8983   -2.7892 H   0  0  0  0  0  0  0  0  0  0  0  0
    1.0977   11.7793   -4.4243 H   0  0  0  0  0  0  0  0  0  0  0  0
    2.3483   10.7892   -3.5059 H   0  0  0  0  0  0  0  0  0  0  0  0
   -0.0622    9.7426   -3.6880 H   0  0  0  0  0  0  0  0  0  0  0  0
   -0.2559   12.0492   -0.3801 H   0  0  0  0  0  0  0  0  0  0  0  0
    1.5197    9.6709    0.4482 H   0  0  0  0  0  0  0  0  0  0  0  0
    1.0428   11.0898    1.4820 H   0  0  0  0  0  0  0  0  0  0  0  0
   -0.2751    9.0631    2.0095 H   0  0  0  0  0  0  0  0  0  0  0  0
   -1.2892   10.4196    1.3787 H   0  0  0  0  0  0  0  0  0  0  0  0
   -2.0210    8.3718    0.3630 H   0  0  0  0  0  0  0  0  0  0  0  0
   -0.3970    7.2390   -1.0050 H   0  0  0  0  0  0  0  0  0  0  0  0
   -2.7524   10.6079   -0.0613 H   0  0  0  0  0  0  0  0  0  0  0  0
   -2.3484   11.4289   -1.6071 H   0  0  0  0  0  0  0  0  0  0  0  0
   -3.4347    9.9983   -1.6071 H   0  0  0  0  0  0  0  0  0  0  0  0
   -2.0800    7.5605   -1.8816 H   0  0  0  0  0  0  0  0  0  0  0  0
   -2.5360    8.8839   -3.0073 H   0  0  0  0  0  0  0  0  0  0  0  0
   -0.8579    8.2430   -3.0073 H   0  0  0  0  0  0  0  0  0  0  0  0
    3.2630   11.1463    0.2491 H   0  0  0  0  0  0  0  0  0  0  0  0
    2.9234   10.2948   -1.2956 H   0  0  0  0  0  0  0  0  0  0  0  0
    3.9096   11.7962   -1.2956 H   0  0  0  0  0  0  0  0  0  0  0  0
    1.5358   13.0368    0.9567 H   0  0  0  0  0  0  0  0  0  0  0  0
    2.9623   13.6369   -0.0631 H   0  0  0  0  0  0  0  0  0  0  0  0
    0.0558   14.4661   -0.2810 H   0  0  0  0  0  0  0  0  0  0  0  0
    1.4776   15.4585    0.2298 H   0  0  0  0  0  0  0  0  0  0  0  0
    3.3789   15.4227   -1.0135 H   0  0  0  0  0  0  0  0  0  0  0  0
    3.4239   14.5151   -2.5630 H   0  0  0  0  0  0  0  0  0  0  0  0
    3.0636   16.2749   -2.5630 H   0  0  0  0  0  0  0  0  0  0  0  0
  1  2  1  0
  2  3  1  0
  3  4  1  0
  4  5  1  0
  5  6  1  0
  6  7  1  0
  7  8  1  0
  7  9  1  0
  2 10  1  0
 10 11  1  0
 11 12  1  0
 12 13  1  0
 13 14  1  1
 13 15  1  0
 15 16  1  0
 16 17  1  0
 17 18  2  0
 18 19  1  0
 19 20  1  0
 20 21  1  0
 21 22  1  0
 22 23  1  0
 22 24  1  0
 24 25  1  0
 24 26  1  0
 19 27  1  0
 27 28  1  6
 27 29  1  0
 29 30  1  0
 30 31  1  0
 31 32  1  1
  7  5  1  0
 31 10  1  0
 31 13  1  0
 27 15  1  0
 24 18  1  0
  1 33  1  0
  1 34  1  0
  1 35  1  0
  2 36  1  6
  3 37  1  0
  3 38  1  0
  4 39  1  0
  4 40  1  0
  5 41  1  1
  8 42  1  0
  8 43  1  0
  8 44  1  0
  9 45  1  0
  9 46  1  0
  9 47  1  0
 10 48  1  1
 11 49  1  0
 11 50  1  0
 12 51  1  0
 12 52  1  0
 14 53  1  0
 14 54  1  0
 14 55  1  0
 15 56  1  6
 16 57  1  0
 16 58  1  0
 17 59  1  0
 19 60  1  1
 20 61  1  0
 20 62  1  0
 21 63  1  0
 21 64  1  0
 22 65  1  1
 23 66  1  0
 25 67  1  0
 25 68  1  0
 25 69  1  0
 26 70  1  0
 26 71  1  0
 26 72  1  0
 28 73  1  0
 28 74  1  0
 28 75  1  0
 29 76  1  0
 29 77  1  0
 30 78  1  0
 30 79  1  0
 32 80  1  0
 32 81  1  0
 32 82  1  0
M  END
>  <meeko>  (3) 
{"is_sidechain": [false], "intermolecular_energy": 2.731, "internal_energy": -0.839}

$$$$
EPH_relaxed_0001_pdb2pqr_Repair_282_r2_0001_out
     RDKit          3D

 82 86  0  0  0  0  0  0  0  0999 V2000
    2.1320   18.1450   -2.6730 C   0  0  0  0  0  0  0  0  0  0  0  0
    0.8670   17.7120   -1.9280 C   0  0  2  0  0  0  0  0  0  0  0  0
    1.0510   17.7560   -0.3970 C   0  0  0  0  0  0  0  0  0  0  0  0
    2.4830   18.0710    0.0420 C   0  0  0  0  0  0  0  0  0  0  0  0
    2.5200   19.1520    1.0790 C   0  0  2  0  0  0  0  0  0  0  0  0
    3.4780   20.1890    0.8290 O   0  0  0  0  0  0  0  0  0  0  0  0
    3.7020   19.3880    2.0010 C   0  0  0  0  0  0  0  0  0  0  0  0
    4.9300   18.5340    1.9280 C   0  0  0  0  0  0  0  0  0  0  0  0
    3.4730   20.1200    3.2860 C   0  0  0  0  0  0  0  0  0  0  0  0
    0.4610   16.3090   -2.3630 C   0  0  1  0  0  0  0  0  0  0  0  0
    0.5570   16.1090   -3.8990 C   0  0  0  0  0  0  0  0  0  0  0  0
    1.0030   14.6430   -4.1330 C   0  0  0  0  0  0  0  0  0  0  0  0
    0.8290   13.9590   -2.7570 C   0  0  1  0  0  0  0  0  0  0  0  0
   -0.6910   13.6150   -2.6700 C   0  0  0  0  0  0  0  0  0  0  0  0
    1.7210   12.7020   -2.4930 C   0  0  2  0  0  0  0  0  0  0  0  0
    1.4730   11.5150   -3.4390 C   0  0  0  0  0  0  0  0  0  0  0  0
    0.4460   10.5350   -2.9760 C   0  0  0  0  0  0  0  0  0  0  0  0
   -0.0440   10.4460   -1.7260 C   0  0  0  0  0  0  0  0  0  0  0  0
    0.5100   11.3280   -0.5990 C   0  0  1  0  0  0  0  0  0  0  0  0
    0.7700   10.4580    0.6590 C   0  0  0  0  0  0  0  0  0  0  0  0
   -0.4620    9.6670    1.0890 C   0  0  0  0  0  0  0  0  0  0  0  0
   -0.9470    8.7600   -0.0380 C   0  0  2  0  0  0  0  0  0  0  0  0
    0.0360    7.7470   -0.2710 O   0  0  0  0  0  0  0  0  0  0  0  0
   -1.2330    9.5240   -1.3610 C   0  0  0  0  0  0  0  0  0  0  0  0
   -2.4960   10.4050   -1.1910 C   0  0  0  0  0  0  0  0  0  0  0  0
   -1.5790    8.4770   -2.4530 C   0  0  0  0  0  0  0  0  0  0  0  0
    1.7560   12.2390   -0.9800 C   0  0  1  0  0  0  0  0  0  0  0  0
    3.0790   11.4360   -0.7900 C   0  0  0  0  0  0  0  0  0  0  0  0
    1.8270   13.4550    0.0170 C   0  0  0  0  0  0  0  0  0  0  0  0
    1.0180   14.7110   -0.3600 C   0  0  0  0  0  0  0  0  0  0  0  0
    1.2920   15.1240   -1.8090 C   0  0  2  0  0  0  0  0  0  0  0  0
    2.8090   15.4980   -1.9220 C   0  0  0  0  0  0  0  0  0  0  0  0
    2.9126   18.4122   -1.9455 H   0  0  0  0  0  0  0  0  0  0  0  0
    2.4871   17.3172   -3.3044 H   0  0  0  0  0  0  0  0  0  0  0  0
    1.9054   19.0167   -3.3044 H   0  0  0  0  0  0  0  0  0  0  0  0
    0.0709   18.4259   -2.1861 H   0  0  0  0  0  0  0  0  0  0  0  0
    0.3845   18.5303    0.0107 H   0  0  0  0  0  0  0  0  0  0  0  0
    0.8113   16.7525   -0.0155 H   0  0  0  0  0  0  0  0  0  0  0  0
    2.9361   17.1601    0.4604 H   0  0  0  0  0  0  0  0  0  0  0  0
    3.0422   18.4211   -0.8382 H   0  0  0  0  0  0  0  0  0  0  0  0
    1.4441   19.0330    1.2748 H   0  0  0  0  0  0  0  0  0  0  0  0
    5.2722   18.2960    2.9460 H   0  0  0  0  0  0  0  0  0  0  0  0
    4.6971   17.6020    1.3922 H   0  0  0  0  0  0  0  0  0  0  0  0
    5.7227   19.0767    1.3922 H   0  0  0  0  0  0  0  0  0  0  0  0
    3.6828   19.4494    4.1324 H   0  0  0  0  0  0  0  0  0  0  0  0
    4.1411   20.9925    3.3351 H   0  0  0  0  0  0  0  0  0  0  0  0
    2.4268   20.4561    3.3351 H   0  0  0  0  0  0  0  0  0  0  0  0
   -0.5595   16.2770   -1.9536 H   0  0  0  0  0  0  0  0  0  0  0  0
   -0.4232   16.2857   -4.3658 H   0  0  0  0  0  0  0  0  0  0  0  0
    1.2729   16.8152   -4.3449 H   0  0  0  0  0  0  0  0  0  0  0  0
    0.3679   14.1598   -4.8901 H   0  0  0  0  0  0  0  0  0  0  0  0
    2.0358   14.5752   -4.5054 H   0  0  0  0  0  0  0  0  0  0  0  0
   -0.9917   13.5470   -1.6141 H   0  0  0  0  0  0  0  0  0  0  0  0
   -1.2745   14.4038   -3.1673 H   0  0  0  0  0  0  0  0  0  0  0  0
   -0.8780   12.6518   -3.1673 H   0  0  0  0  0  0  0  0  0  0  0  0
    2.7278   13.0717   -2.7372 H   0  0  0  0  0  0  0  0  0  0  0  0
    1.1467   11.9163   -4.4098 H   0  0  0  0  0  0  0  0  0  0  0  0
    2.4222   10.9612   -3.4881 H   0  0  0  0  0  0  0  0  0  0  0  0
    0.0567    9.8250   -3.7205 H   0  0  0  0  0  0  0  0  0  0  0  0
   -0.2709   12.0721   -0.3831 H   0  0  0  0  0  0  0  0  0  0  0  0
    1.5829    9.7511    0.4368 H   0  0  0  0  0  0  0  0  0  0  0  0
    1.0362   11.1353    1.4838 H   0  0  0  0  0  0  0  0  0  0  0  0
   -0.2069    9.0501    1.9633 H   0  0  0  0  0  0  0  0  0  0  0  0
   -1.2649   10.3758    1.3401 H   0  0  0  0  0  0  0  0  0  0  0  0
   -1.9028    8.3200    0.2827 H   0  0  0  0  0  0  0  0  0  0  0  0
   -0.0080    7.5040   -1.2120 H   0  0  0  0  0  0  0  0  0  0  0  0
   -2.7016   10.5484   -0.1199 H   0  0  0  0  0  0  0  0  0  0  0  0
   -2.3277   11.3827   -1.6662 H   0  0  0  0  0  0  0  0  0  0  0  0
   -3.3554    9.9094   -1.6662 H   0  0  0  0  0  0  0  0  0  0  0  0
   -1.8897    7.5367   -1.9741 H   0  0  0  0  0  0  0  0  0  0  0  0
   -2.3990    8.8579   -3.0795 H   0  0  0  0  0  0  0  0  0  0  0  0
   -0.6935    8.2943   -3.0795 H   0  0  0  0  0  0  0  0  0  0  0  0
    3.2821   11.3127    0.2840 H   0  0  0  0  0  0  0  0  0  0  0  0
    2.9781   10.4466   -1.2600 H   0  0  0  0  0  0  0  0  0  0  0  0
    3.9101   11.9822   -1.2600 H   0  0  0  0  0  0  0  0  0  0  0  0
    1.4628   13.1056    0.9944 H   0  0  0  0  0  0  0  0  0  0  0  0
    2.8790   13.7760    0.0048 H   0  0  0  0  0  0  0  0  0  0  0  0
   -0.0546   14.4967   -0.2434 H   0  0  0  0  0  0  0  0  0  0  0  0
    1.3199   15.5352    0.3030 H   0  0  0  0  0  0  0  0  0  0  0  0
    3.2367   15.6034   -0.9141 H   0  0  0  0  0  0  0  0  0  0  0  0
    3.3428   14.7046   -2.4656 H   0  0  0  0  0  0  0  0  0  0  0  0
    2.9128   16.4486   -2.4656 H   0  0  0  0  0  0  0  0  0  0  0  0
  1  2  1  0
  2  3  1  0
  3  4  1  0
  4  5  1  0
  5  6  1  0
  6  7  1  0
  7  8  1  0
  7  9  1  0
  2 10  1  0
 10 11  1  0
 11 12  1  0
 12 13  1  0
 13 14  1  1
 13 15  1  0
 15 16  1  0
 16 17  1  0
 17 18  2  0
 18 19  1  0
 19 20  1  0
 20 21  1  0
 21 22  1  0
 22 23  1  0
 22 24  1  0
 24 25  1  0
 24 26  1  0
 19 27  1  0
 27 28  1  6
 27 29  1  0
 29 30  1  0
 30 31  1  0
 31 32  1  1
  7  5  1  0
 31 10  1  0
 31 13  1  0
 27 15  1  0
 24 18  1  0
  1 33  1  0
  1 34  1  0
  1 35  1  0
  2 36  1  1
  3 37  1  0
  3 38  1  0
  4 39  1  0
  4 40  1  0
  5 41  1  1
  8 42  1  0
  8 43  1  0
  8 44  1  0
  9 45  1  0
  9 46  1  0
  9 47  1  0
 10 48  1  1
 11 49  1  0
 11 50  1  0
 12 51  1  0
 12 52  1  0
 14 53  1  0
 14 54  1  0
 14 55  1  0
 15 56  1  6
 16 57  1  0
 16 58  1  0
 17 59  1  0
 19 60  1  1
 20 61  1  0
 20 62  1  0
 21 63  1  0
 21 64  1  0
 22 65  1  1
 23 66  1  0
 25 67  1  0
 25 68  1  0
 25 69  1  0
 26 70  1  0
 26 71  1  0
 26 72  1  0
 28 73  1  0
 28 74  1  0
 28 75  1  0
 29 76  1  0
 29 77  1  0
 30 78  1  0
 30 79  1  0
 32 80  1  0
 32 81  1  0
 32 82  1  0
M  END
>  <meeko>  (4) 
{"is_sidechain": [false], "intermolecular_energy": 2.731, "internal_energy": -0.839}

$$$$
EPH_relaxed_0001_pdb2pqr_Repair_282_r2_0001_out
     RDKit          3D

 82 86  0  0  0  0  0  0  0  0999 V2000
    3.6330   17.9970    0.7090 C   0  0  0  0  0  0  0  0  0  0  0  0
    2.6410   18.3780   -0.3930 C   0  0  2  0  0  0  0  0  0  0  0  0
    1.8840   19.6820   -0.0680 C   0  0  0  0  0  0  0  0  0  0  0  0
    0.7410   19.4960    0.9340 C   0  0  0  0  0  0  0  0  0  0  0  0
   -0.5180   20.1620    0.4670 C   0  0  2  0  0  0  0  0  0  0  0  0
   -1.5740   20.1930    1.4370 O   0  0  0  0  0  0  0  0  0  0  0  0
   -1.8250   19.4210    0.2520 C   0  0  0  0  0  0  0  0  0  0  0  0
   -1.9380   17.9490    0.4970 C   0  0  0  0  0  0  0  0  0  0  0  0
   -2.8500   20.0270   -0.6560 C   0  0  0  0  0  0  0  0  0  0  0  0
    1.6490   17.2420   -0.6150 C   0  0  1  0  0  0  0  0  0  0  0  0
    0.4400   17.6670   -1.4900 C   0  0  0  0  0  0  0  0  0  0  0  0
    0.0500   16.4340   -2.3440 C   0  0  0  0  0  0  0  0  0  0  0  0
    0.8200   15.2560   -1.7030 C   0  0  1  0  0  0  0  0  0  0  0  0
   -0.0430   14.8350   -0.4730 C   0  0  0  0  0  0  0  0  0  0  0  0
    1.1260   14.0400   -2.6370 C   0  0  2  0  0  0  0  0  0  0  0  0
   -0.1120   13.3100   -3.1840 C   0  0  0  0  0  0  0  0  0  0  0  0
   -0.6090   12.1800   -2.3450 C   0  0  0  0  0  0  0  0  0  0  0  0
    0.0750   11.5840   -1.3500 C   0  0  0  0  0  0  0  0  0  0  0  0
    1.5260   11.9770   -1.0480 C   0  0  1  0  0  0  0  0  0  0  0  0
    2.3840   10.6960   -0.8740 C   0  0  0  0  0  0  0  0  0  0  0  0
    1.8080    9.7430    0.1690 C   0  0  0  0  0  0  0  0  0  0  0  0
    0.3840    9.3300   -0.1970 C   0  0  2  0  0  0  0  0  0  0  0  0
    0.4260    8.5370   -1.3880 O   0  0  0  0  0  0  0  0  0  0  0  0
   -0.5700   10.5390   -0.4070 C   0  0  0  0  0  0  0  0  0  0  0  0
   -0.8530   11.2210    0.9540 C   0  0  0  0  0  0  0  0  0  0  0  0
   -1.9330    9.9900   -0.9090 C   0  0  0  0  0  0  0  0  0  0  0  0
    2.1850   13.0210   -2.0480 C   0  0  1  0  0  0  0  0  0  0  0  0
    2.8060   12.2720   -3.2670 C   0  0  0  0  0  0  0  0  0  0  0  0
    3.3760   13.7500   -1.3210 C   0  0  0  0  0  0  0  0  0  0  0  0
    3.0270   15.0140   -0.5110 C   0  0  0  0  0  0  0  0  0  0  0  0
    2.1700   15.9760   -1.3400 C   0  0  2  0  0  0  0  0  0  0  0  0
    3.0210   16.4340   -2.5730 C   0  0  0  0  0  0  0  0  0  0  0  0
    3.1737   18.1734    1.6928 H   0  0  0  0  0  0  0  0  0  0  0  0
    3.8970   16.9335    0.6130 H   0  0  0  0  0  0  0  0  0  0  0  0
    4.5411   18.6103    0.6130 H   0  0  0  0  0  0  0  0  0  0  0  0
    3.2191   18.5521   -1.3125 H   0  0  0  0  0  0  0  0  0  0  0  0
    2.6000   20.4039    0.3518 H   0  0  0  0  0  0  0  0  0  0  0  0
    1.4340   20.0355   -1.0074 H   0  0  0  0  0  0  0  0  0  0  0  0
    0.5495   18.4203    1.0610 H   0  0  0  0  0  0  0  0  0  0  0  0
    1.0407   19.9576    1.8864 H   0  0  0  0  0  0  0  0  0  0  0  0
    0.0543   20.8502   -0.1724 H   0  0  0  0  0  0  0  0  0  0  0  0
   -1.9527   17.7576    1.5801 H   0  0  0  0  0  0  0  0  0  0  0  0
   -2.8677   17.5724    0.0455 H   0  0  0  0  0  0  0  0  0  0  0  0
   -1.0767   17.4350    0.0455 H   0  0  0  0  0  0  0  0  0  0  0  0
   -3.6423   20.4954   -0.0537 H   0  0  0  0  0  0  0  0  0  0  0  0
   -2.3732   20.7885   -1.2907 H   0  0  0  0  0  0  0  0  0  0  0  0
   -3.2874   19.2422   -1.2907 H   0  0  0  0  0  0  0  0  0  0  0  0
    1.4037   17.0039    0.4305 H   0  0  0  0  0  0  0  0  0  0  0  0
   -0.4034   17.9669   -0.8506 H   0  0  0  0  0  0  0  0  0  0  0  0
    0.6974   18.5244   -2.1292 H   0  0  0  0  0  0  0  0  0  0  0  0
   -1.0350   16.2586   -2.2998 H   0  0  0  0  0  0  0  0  0  0  0  0
    0.3003   16.5668   -3.4069 H   0  0  0  0  0  0  0  0  0  0  0  0
    0.4889   15.0945    0.4542 H   0  0  0  0  0  0  0  0  0  0  0  0
   -1.0069   15.3641   -0.5031 H   0  0  0  0  0  0  0  0  0  0  0  0
   -0.2194   13.7496   -0.5031 H   0  0  0  0  0  0  0  0  0  0  0  0
    1.5963   14.5226   -3.5065 H   0  0  0  0  0  0  0  0  0  0  0  0
   -0.9248   14.0449   -3.2803 H   0  0  0  0  0  0  0  0  0  0  0  0
    0.1958   12.8651   -4.1418 H   0  0  0  0  0  0  0  0  0  0  0  0
   -1.6199   11.8020   -2.5576 H   0  0  0  0  0  0  0  0  0  0  0  0
    1.4976   12.5391   -0.1029 H   0  0  0  0  0  0  0  0  0  0  0  0
    2.4355   10.1722   -1.8399 H   0  0  0  0  0  0  0  0  0  0  0  0
    3.3810   11.0064   -0.5281 H   0  0  0  0  0  0  0  0  0  0  0  0
    2.4405    8.8447    0.2242 H   0  0  0  0  0  0  0  0  0  0  0  0
    1.7856   10.2578    1.1409 H   0  0  0  0  0  0  0  0  0  0  0  0
   -0.0207    8.7552    0.6490 H   0  0  0  0  0  0  0  0  0  0  0  0
   -0.3730    7.9840   -1.4020 H   0  0  0  0  0  0  0  0  0  0  0  0
   -0.5706   10.5405    1.7708 H   0  0  0  0  0  0  0  0  0  0  0  0
   -0.2651   12.1477    1.0290 H   0  0  0  0  0  0  0  0  0  0  0  0
   -1.9243   11.4593    1.0290 H   0  0  0  0  0  0  0  0  0  0  0  0
   -2.5658    9.7351   -0.0461 H   0  0  0  0  0  0  0  0  0  0  0  0
   -2.4349   10.7561   -1.5182 H   0  0  0  0  0  0  0  0  0  0  0  0
   -1.7638    9.0899   -1.5182 H   0  0  0  0  0  0  0  0  0  0  0  0
    3.4693   11.4719   -2.9066 H   0  0  0  0  0  0  0  0  0  0  0  0
    2.0019   11.8347   -3.8771 H   0  0  0  0  0  0  0  0  0  0  0  0
    3.3847   12.9812   -3.8771 H   0  0  0  0  0  0  0  0  0  0  0  0
    3.8356   13.0282   -0.6297 H   0  0  0  0  0  0  0  0  0  0  0  0
    4.0357   14.0992   -2.1290 H   0  0  0  0  0  0  0  0  0  0  0  0
    2.4695   14.7211    0.3909 H   0  0  0  0  0  0  0  0  0  0  0  0
    3.9619   15.5243   -0.2363 H   0  0  0  0  0  0  0  0  0  0  0  0
    3.9389   16.9280   -2.2218 H   0  0  0  0  0  0  0  0  0  0  0  0
    3.2864   15.5569   -3.1815 H   0  0  0  0  0  0  0  0  0  0  0  0
    2.4352   17.1387   -3.1815 H   0  0  0  0  0  0  0  0  0  0  0  0
  1  2  1  0
  2  3  1  0
  3  4  1  0
  4  5  1  0
  5  6  1  0
  6  7  1  0
  7  8  1  0
  7  9  1  0
  2 10  1  0
 10 11  1  0
 11 12  1  0
 12 13  1  0
 13 14  1  1
 13 15  1  0
 15 16  1  0
 16 17  1  0
 17 18  2  0
 18 19  1  0
 19 20  1  0
 20 21  1  0
 21 22  1  0
 22 23  1  0
 22 24  1  0
 24 25  1  0
 24 26  1  0
 19 27  1  0
 27 28  1  6
 27 29  1  0
 29 30  1  0
 30 31  1  0
 31 32  1  6
  7  5  1  0
 31 10  1  0
 31 13  1  0
 27 15  1  0
 24 18  1  0
  1 33  1  0
  1 34  1  0
  1 35  1  0
  2 36  1  6
  3 37  1  0
  3 38  1  0
  4 39  1  0
  4 40  1  0
  5 41  1  6
  8 42  1  0
  8 43  1  0
  8 44  1  0
  9 45  1  0
  9 46  1  0
  9 47  1  0
 10 48  1  1
 11 49  1  0
 11 50  1  0
 12 51  1  0
 12 52  1  0
 14 53  1  0
 14 54  1  0
 14 55  1  0
 15 56  1  6
 16 57  1  0
 16 58  1  0
 17 59  1  0
 19 60  1  1
 20 61  1  0
 20 62  1  0
 21 63  1  0
 21 64  1  0
 22 65  1  1
 23 66  1  0
 25 67  1  0
 25 68  1  0
 25 69  1  0
 26 70  1  0
 26 71  1  0
 26 72  1  0
 28 73  1  0
 28 74  1  0
 28 75  1  0
 29 76  1  0
 29 77  1  0
 30 78  1  0
 30 79  1  0
 32 80  1  0
 32 81  1  0
 32 82  1  0
M  END
>  <meeko>  (5) 
{"is_sidechain": [false], "intermolecular_energy": 2.731, "internal_energy": -0.839}

$$$$
EPH_relaxed_0001_pdb2pqr_Repair_282_r2_0001_out
     RDKit          3D

 82 86  0  0  0  0  0  0  0  0999 V2000
   -5.0890    5.9540   -1.8720 C   0  0  0  0  0  0  0  0  0  0  0  0
   -5.4420    7.4430   -1.8580 C   0  0  2  0  0  0  0  0  0  0  0  0
   -5.2370    8.0760   -0.4670 C   0  0  0  0  0  0  0  0  0  0  0  0
   -4.1850    9.1880   -0.4450 C   0  0  0  0  0  0  0  0  0  0  0  0
   -2.8140    8.6580   -0.7390 C   0  0  2  0  0  0  0  0  0  0  0  0
   -1.8130    9.0230    0.2200 O   0  0  0  0  0  0  0  0  0  0  0  0
   -1.6370    9.5430   -1.1080 C   0  0  0  0  0  0  0  0  0  0  0  0
   -1.7780   11.0290   -1.2040 C   0  0  0  0  0  0  0  0  0  0  0  0
   -0.4870    8.9320   -1.8470 C   0  0  0  0  0  0  0  0  0  0  0  0
   -6.8840    7.6400   -2.3130 C   0  0  1  0  0  0  0  0  0  0  0  0
   -7.1890    6.9270   -3.6570 C   0  0  0  0  0  0  0  0  0  0  0  0
   -8.6550    6.4280   -3.5760 C   0  0  0  0  0  0  0  0  0  0  0  0
   -9.2450    7.1500   -2.3420 C   0  0  1  0  0  0  0  0  0  0  0  0
   -9.6250    8.5750   -2.8550 C   0  0  0  0  0  0  0  0  0  0  0  0
  -10.4530    6.4470   -1.6430 C   0  0  2  0  0  0  0  0  0  0  0  0
  -11.7120    6.2920   -2.5140 C   0  0  0  0  0  0  0  0  0  0  0  0
  -12.6850    7.4210   -2.4360 C   0  0  0  0  0  0  0  0  0  0  0  0
  -12.6980    8.3780   -1.4900 C   0  0  0  0  0  0  0  0  0  0  0  0
  -11.7240    8.3290   -0.3060 C   0  0  1  0  0  0  0  0  0  0  0  0
  -12.4950    8.6060    1.0110 C   0  0  0  0  0  0  0  0  0  0  0  0
  -13.2880    9.9090    0.9620 C   0  0  0  0  0  0  0  0  0  0  0  0
  -14.2860    9.8960   -0.1930 C   0  0  2  0  0  0  0  0  0  0  0  0
  -15.2850    8.9050    0.0730 O   0  0  0  0  0  0  0  0  0  0  0  0
  -13.6260    9.6150   -1.5720 C   0  0  0  0  0  0  0  0  0  0  0  0
  -12.7720   10.8350   -1.9970 C   0  0  0  0  0  0  0  0  0  0  0  0
  -14.7580    9.4890   -2.6260 C   0  0  0  0  0  0  0  0  0  0  0  0
  -10.8070    7.0340   -0.2160 C   0  0  1  0  0  0  0  0  0  0  0  0
  -11.5560    5.9050    0.5560 C   0  0  0  0  0  0  0  0  0  0  0  0
   -9.5220    7.3720    0.6280 C   0  0  0  0  0  0  0  0  0  0  0  0
   -8.3190    7.9530   -0.1400 C   0  0  0  0  0  0  0  0  0  0  0  0
   -8.0020    7.1110   -1.3800 C   0  0  2  0  0  0  0  0  0  0  0  0
   -7.5940    5.6780   -0.8940 C   0  0  0  0  0  0  0  0  0  0  0  0
   -5.0022    5.5880   -0.8383 H   0  0  0  0  0  0  0  0  0  0  0  0
   -5.8794    5.3947   -2.3939 H   0  0  0  0  0  0  0  0  0  0  0  0
   -4.1316    5.8090   -2.3939 H   0  0  0  0  0  0  0  0  0  0  0  0
   -4.7595    7.9511   -2.5552 H   0  0  0  0  0  0  0  0  0  0  0  0
   -6.1961    8.4988   -0.1333 H   0  0  0  0  0  0  0  0  0  0  0  0
   -4.8752    7.2784    0.1986 H   0  0  0  0  0  0  0  0  0  0  0  0
   -4.4463    9.9414   -1.2027 H   0  0  0  0  0  0  0  0  0  0  0  0
   -4.1737    9.6304    0.5621 H   0  0  0  0  0  0  0  0  0  0  0  0
   -3.2365    7.7577   -1.2092 H   0  0  0  0  0  0  0  0  0  0  0  0
   -1.8189   11.4595   -0.1926 H   0  0  0  0  0  0  0  0  0  0  0  0
   -0.9153   11.4450   -1.7450 H   0  0  0  0  0  0  0  0  0  0  0  0
   -2.7035   11.2753   -1.7450 H   0  0  0  0  0  0  0  0  0  0  0  0
    0.2466    8.5422   -1.1260 H   0  0  0  0  0  0  0  0  0  0  0  0
   -0.8528    8.1093   -2.4790 H   0  0  0  0  0  0  0  0  0  0  0  0
   -0.0100    9.6956   -2.4790 H   0  0  0  0  0  0  0  0  0  0  0  0
   -6.9165    8.7388   -2.3537 H   0  0  0  0  0  0  0  0  0  0  0  0
   -7.0743    7.6314   -4.4941 H   0  0  0  0  0  0  0  0  0  0  0  0
   -6.4956    6.0900   -3.8263 H   0  0  0  0  0  0  0  0  0  0  0  0
   -9.2087    6.7001   -4.4867 H   0  0  0  0  0  0  0  0  0  0  0  0
   -8.7189    5.3333   -3.4890 H   0  0  0  0  0  0  0  0  0  0  0  0
   -9.8020    9.2388   -1.9959 H   0  0  0  0  0  0  0  0  0  0  0  0
   -8.8025    8.9764   -3.4652 H   0  0  0  0  0  0  0  0  0  0  0  0
  -10.5382    8.5136   -3.4652 H   0  0  0  0  0  0  0  0  0  0  0  0
  -10.0723    5.4273   -1.4844 H   0  0  0  0  0  0  0  0  0  0  0  0
  -11.3905    6.1923   -3.5612 H   0  0  0  0  0  0  0  0  0  0  0  0
  -12.2410    5.4077   -2.1290 H   0  0  0  0  0  0  0  0  0  0  0  0
  -13.4568    7.4755   -3.2179 H   0  0  0  0  0  0  0  0  0  0  0  0
  -10.9896    9.1285   -0.4831 H   0  0  0  0  0  0  0  0  0  0  0  0
  -13.1927    7.7752    1.1925 H   0  0  0  0  0  0  0  0  0  0  0  0
  -11.7540    8.6963    1.8190 H   0  0  0  0  0  0  0  0  0  0  0  0
  -13.8342   10.0340    1.9086 H   0  0  0  0  0  0  0  0  0  0  0  0
  -12.5860   10.7422    0.8106 H   0  0  0  0  0  0  0  0  0  0  0  0
  -14.7288   10.9009   -0.2572 H   0  0  0  0  0  0  0  0  0  0  0  0
  -15.9480    8.9590   -0.6360 H   0  0  0  0  0  0  0  0  0  0  0  0
  -12.4066   11.3570   -1.1003 H   0  0  0  0  0  0  0  0  0  0  0  0
  -11.9156   10.4922   -2.5963 H   0  0  0  0  0  0  0  0  0  0  0  0
  -13.3872   11.5223   -2.5963 H   0  0  0  0  0  0  0  0  0  0  0  0
  -15.7255    9.3813   -2.1139 H   0  0  0  0  0  0  0  0  0  0  0  0
  -14.7748   10.3908   -3.2556 H   0  0  0  0  0  0  0  0  0  0  0  0
  -14.5761    8.6056   -3.2556 H   0  0  0  0  0  0  0  0  0  0  0  0
  -11.4483    6.0674    1.6386 H   0  0  0  0  0  0  0  0  0  0  0  0
  -12.6225    5.9221    0.2870 H   0  0  0  0  0  0  0  0  0  0  0  0
  -11.1256    4.9291    0.2870 H   0  0  0  0  0  0  0  0  0  0  0  0
   -9.8115    8.1043    1.3961 H   0  0  0  0  0  0  0  0  0  0  0  0
   -9.1731    6.4055    1.0206 H   0  0  0  0  0  0  0  0  0  0  0  0
   -8.5545    8.9808   -0.4534 H   0  0  0  0  0  0  0  0  0  0  0  0
   -7.4418    7.9444    0.5236 H   0  0  0  0  0  0  0  0  0  0  0  0
   -7.5866    5.6521    0.2057 H   0  0  0  0  0  0  0  0  0  0  0  0
   -8.3183    4.9421   -1.2733 H   0  0  0  0  0  0  0  0  0  0  0  0
   -6.5907    5.4340   -1.2733 H   0  0  0  0  0  0  0  0  0  0  0  0
  1  2  1  0
  2  3  1  0
  3  4  1  0
  4  5  1  0
  5  6  1  0
  6  7  1  0
  7  8  1  0
  7  9  1  0
  2 10  1  0
 10 11  1  0
 11 12  1  0
 12 13  1  0
 13 14  1  6
 13 15  1  0
 15 16  1  0
 16 17  1  0
 17 18  2  0
 18 19  1  0
 19 20  1  0
 20 21  1  0
 21 22  1  0
 22 23  1  0
 22 24  1  0
 24 25  1  0
 24 26  1  0
 19 27  1  0
 27 28  1  1
 27 29  1  0
 29 30  1  0
 30 31  1  0
 31 32  1  1
  7  5  1  0
 31 10  1  0
 31 13  1  0
 27 15  1  0
 24 18  1  0
  1 33  1  0
  1 34  1  0
  1 35  1  0
  2 36  1  6
  3 37  1  0
  3 38  1  0
  4 39  1  0
  4 40  1  0
  5 41  1  6
  8 42  1  0
  8 43  1  0
  8 44  1  0
  9 45  1  0
  9 46  1  0
  9 47  1  0
 10 48  1  6
 11 49  1  0
 11 50  1  0
 12 51  1  0
 12 52  1  0
 14 53  1  0
 14 54  1  0
 14 55  1  0
 15 56  1  1
 16 57  1  0
 16 58  1  0
 17 59  1  0
 19 60  1  6
 20 61  1  0
 20 62  1  0
 21 63  1  0
 21 64  1  0
 22 65  1  6
 23 66  1  0
 25 67  1  0
 25 68  1  0
 25 69  1  0
 26 70  1  0
 26 71  1  0
 26 72  1  0
 28 73  1  0
 28 74  1  0
 28 75  1  0
 29 76  1  0
 29 77  1  0
 30 78  1  0
 30 79  1  0
 32 80  1  0
 32 81  1  0
 32 82  1  0
M  END
>  <meeko>  (6) 
{"is_sidechain": [false], "intermolecular_energy": 2.731, "internal_energy": -0.839}

$$$$
EPH_relaxed_0001_pdb2pqr_Repair_282_r2_0001_out
     RDKit          3D

 82 86  0  0  0  0  0  0  0  0999 V2000
    0.4120    8.7970   -2.3320 C   0  0  0  0  0  0  0  0  0  0  0  0
    1.1450    9.9360   -3.0470 C   0  0  2  0  0  0  0  0  0  0  0  0
    2.6490    9.9610   -2.7090 C   0  0  0  0  0  0  0  0  0  0  0  0
    3.5150   10.5980   -3.7990 C   0  0  0  0  0  0  0  0  0  0  0  0
    4.9140   10.8460   -3.3220 C   0  0  2  0  0  0  0  0  0  0  0  0
    5.5150   12.0460   -3.8270 O   0  0  0  0  0  0  0  0  0  0  0  0
    6.1270   10.8110   -4.2330 C   0  0  0  0  0  0  0  0  0  0  0  0
    5.9960   10.5190   -5.6950 C   0  0  0  0  0  0  0  0  0  0  0  0
    7.4730   10.5760   -3.6230 C   0  0  0  0  0  0  0  0  0  0  0  0
    0.5070   11.2720   -2.6850 C   0  0  1  0  0  0  0  0  0  0  0  0
   -0.8610   11.1070   -1.9710 C   0  0  0  0  0  0  0  0  0  0  0  0
   -0.9670   12.2560   -0.9360 C   0  0  0  0  0  0  0  0  0  0  0  0
    0.1760   13.2270   -1.3130 C   0  0  1  0  0  0  0  0  0  0  0  0
   -0.3890   14.0720   -2.4970 C   0  0  0  0  0  0  0  0  0  0  0  0
    0.7180   14.1360   -0.1620 C   0  0  2  0  0  0  0  0  0  0  0  0
   -0.3070   15.1160    0.4330 C   0  0  0  0  0  0  0  0  0  0  0  0
   -0.3620   16.4570   -0.2200 C   0  0  0  0  0  0  0  0  0  0  0  0
    0.5690   16.9600   -1.0520 C   0  0  0  0  0  0  0  0  0  0  0  0
    1.8690   16.1960   -1.3340 C   0  0  1  0  0  0  0  0  0  0  0  0
    3.0740   17.1670   -1.2270 C   0  0  0  0  0  0  0  0  0  0  0  0
    2.9160   18.3960   -2.1170 C   0  0  0  0  0  0  0  0  0  0  0  0
    1.6420   19.1620   -1.7670 C   0  0  2  0  0  0  0  0  0  0  0  0
    1.7820   19.7140   -0.4540 O   0  0  0  0  0  0  0  0  0  0  0  0
    0.3620   18.2830   -1.8310 C   0  0  0  0  0  0  0  0  0  0  0  0
    0.0430   17.9340   -3.3050 C   0  0  0  0  0  0  0  0  0  0  0  0
   -0.8290   19.1370   -1.3200 C   0  0  0  0  0  0  0  0  0  0  0  0
    2.0840   14.8620   -0.4980 C   0  0  1  0  0  0  0  0  0  0  0  0
    2.7600   15.1930    0.8680 C   0  0  0  0  0  0  0  0  0  0  0  0
    3.0850   13.9250   -1.2720 C   0  0  0  0  0  0  0  0  0  0  0  0
    2.4750   12.9650   -2.3110 C   0  0  0  0  0  0  0  0  0  0  0  0
    1.2910   12.1950   -1.7180 C   0  0  2  0  0  0  0  0  0  0  0  0
    1.8330   11.3180   -0.5380 C   0  0  0  0  0  0  0  0  0  0  0  0
    0.4985    8.9315   -1.2437 H   0  0  0  0  0  0  0  0  0  0  0  0
   -0.6497    8.8068   -2.6194 H   0  0  0  0  0  0  0  0  0  0  0  0
    0.8608    7.8347   -2.6194 H   0  0  0  0  0  0  0  0  0  0  0  0
    1.0532    9.7613   -4.1291 H   0  0  0  0  0  0  0  0  0  0  0  0
    2.7863   10.5318   -1.7788 H   0  0  0  0  0  0  0  0  0  0  0  0
    2.9737    8.9145   -2.6116 H   0  0  0  0  0  0  0  0  0  0  0  0
    3.5488    9.9232   -4.6670 H   0  0  0  0  0  0  0  0  0  0  0  0
    3.0684   11.5663   -4.0692 H   0  0  0  0  0  0  0  0  0  0  0  0
    4.6985   10.3558   -2.3611 H   0  0  0  0  0  0  0  0  0  0  0  0
    5.5492    9.5231   -5.8314 H   0  0  0  0  0  0  0  0  0  0  0  0
    5.3518   11.2773   -6.1641 H   0  0  0  0  0  0  0  0  0  0  0  0
    6.9907   10.5420   -6.1641 H   0  0  0  0  0  0  0  0  0  0  0  0
    7.3863   10.5911   -2.5265 H   0  0  0  0  0  0  0  0  0  0  0  0
    7.8566    9.5973   -3.9470 H   0  0  0  0  0  0  0  0  0  0  0  0
    8.1655   11.3668   -3.9470 H   0  0  0  0  0  0  0  0  0  0  0  0
    0.4562   11.7291   -3.6842 H   0  0  0  0  0  0  0  0  0  0  0  0
   -1.6805   11.1783   -2.7013 H   0  0  0  0  0  0  0  0  0  0  0  0
   -0.9343   10.1254   -1.4801 H   0  0  0  0  0  0  0  0  0  0  0  0
   -1.9432   12.7575   -1.0110 H   0  0  0  0  0  0  0  0  0  0  0  0
   -0.8825   11.8941    0.0993 H   0  0  0  0  0  0  0  0  0  0  0  0
   -0.9591   14.9247   -2.0996 H   0  0  0  0  0  0  0  0  0  0  0  0
    0.4436   14.4427   -3.1130 H   0  0  0  0  0  0  0  0  0  0  0  0
   -1.0497   13.4443   -3.1130 H   0  0  0  0  0  0  0  0  0  0  0  0
    0.9309   13.4069    0.6337 H   0  0  0  0  0  0  0  0  0  0  0  0
   -1.3033   14.6570    0.3507 H   0  0  0  0  0  0  0  0  0  0  0  0
    0.0115   15.2960    1.4704 H   0  0  0  0  0  0  0  0  0  0  0  0
   -1.2370   17.0873   -0.0031 H   0  0  0  0  0  0  0  0  0  0  0  0
    1.7835   15.8198   -2.3641 H   0  0  0  0  0  0  0  0  0  0  0  0
    3.1684   17.4980   -0.1822 H   0  0  0  0  0  0  0  0  0  0  0  0
    3.9704   16.6249   -1.5625 H   0  0  0  0  0  0  0  0  0  0  0  0
    3.7839   19.0569   -1.9758 H   0  0  0  0  0  0  0  0  0  0  0  0
    2.8510   18.0656   -3.1642 H   0  0  0  0  0  0  0  0  0  0  0  0
    1.5160   19.9545   -2.5194 H   0  0  0  0  0  0  0  0  0  0  0  0
    2.1220   20.6200   -0.5510 H   0  0  0  0  0  0  0  0  0  0  0  0
   -0.6988   17.1224   -3.3374 H   0  0  0  0  0  0  0  0  0  0  0  0
   -0.3624   18.8217   -3.8125 H   0  0  0  0  0  0  0  0  0  0  0  0
    0.9635   17.6098   -3.8125 H   0  0  0  0  0  0  0  0  0  0  0  0
   -0.8329   19.1398   -0.2200 H   0  0  0  0  0  0  0  0  0  0  0  0
   -0.7257   20.1681   -1.6889 H   0  0  0  0  0  0  0  0  0  0  0  0
   -1.7725   18.7083   -1.6889 H   0  0  0  0  0  0  0  0  0  0  0  0
    2.1031   14.8714    1.6896 H   0  0  0  0  0  0  0  0  0  0  0  0
    3.7218   14.6639    0.9389 H   0  0  0  0  0  0  0  0  0  0  0  0
    2.9319   16.2772    0.9389 H   0  0  0  0  0  0  0  0  0  0  0  0
    3.8057   14.5692   -1.7969 H   0  0  0  0  0  0  0  0  0  0  0  0
    3.5244   13.2742   -0.5017 H   0  0  0  0  0  0  0  0  0  0  0  0
    2.1281   13.5464   -3.1780 H   0  0  0  0  0  0  0  0  0  0  0  0
    3.2461   12.2421   -2.6155 H   0  0  0  0  0  0  0  0  0  0  0  0
    1.5492   11.7771    0.4205 H   0  0  0  0  0  0  0  0  0  0  0  0
    1.4011   10.3084   -0.6031 H   0  0  0  0  0  0  0  0  0  0  0  0
    2.9291   11.2528   -0.6031 H   0  0  0  0  0  0  0  0  0  0  0  0
  1  2  1  0
  2  3  1  0
  3  4  1  0
  4  5  1  0
  5  6  1  0
  6  7  1  0
  7  8  1  0
  7  9  1  0
  2 10  1  0
 10 11  1  0
 11 12  1  0
 12 13  1  0
 13 14  1  6
 13 15  1  0
 15 16  1  0
 16 17  1  0
 17 18  2  0
 18 19  1  0
 19 20  1  0
 20 21  1  0
 21 22  1  0
 22 23  1  0
 22 24  1  0
 24 25  1  0
 24 26  1  0
 19 27  1  0
 27 28  1  1
 27 29  1  0
 29 30  1  0
 30 31  1  0
 31 32  1  1
  7  5  1  0
 31 10  1  0
 31 13  1  0
 27 15  1  0
 24 18  1  0
  1 33  1  0
  1 34  1  0
  1 35  1  0
  2 36  1  6
  3 37  1  0
  3 38  1  0
  4 39  1  0
  4 40  1  0
  5 41  1  1
  8 42  1  0
  8 43  1  0
  8 44  1  0
  9 45  1  0
  9 46  1  0
  9 47  1  0
 10 48  1  6
 11 49  1  0
 11 50  1  0
 12 51  1  0
 12 52  1  0
 14 53  1  0
 14 54  1  0
 14 55  1  0
 15 56  1  1
 16 57  1  0
 16 58  1  0
 17 59  1  0
 19 60  1  6
 20 61  1  0
 20 62  1  0
 21 63  1  0
 21 64  1  0
 22 65  1  6
 23 66  1  0
 25 67  1  0
 25 68  1  0
 25 69  1  0
 26 70  1  0
 26 71  1  0
 26 72  1  0
 28 73  1  0
 28 74  1  0
 28 75  1  0
 29 76  1  0
 29 77  1  0
 30 78  1  0
 30 79  1  0
 32 80  1  0
 32 81  1  0
 32 82  1  0
M  END
>  <meeko>  (7) 
{"is_sidechain": [false], "intermolecular_energy": 2.731, "internal_energy": -0.839}

$$$$
EPH_relaxed_0001_pdb2pqr_Repair_282_r2_0001_out
     RDKit          3D

 82 86  0  0  0  0  0  0  0  0999 V2000
   -0.9140   16.3800   -5.8280 C   0  0  0  0  0  0  0  0  0  0  0  0
    0.1810   15.6880   -6.6450 C   0  0  2  0  0  0  0  0  0  0  0  0
   -0.2180   15.5180   -8.1240 C   0  0  0  0  0  0  0  0  0  0  0  0
    0.4410   16.5330   -9.0610 C   0  0  0  0  0  0  0  0  0  0  0  0
    1.8430   16.1350   -9.4120 C   0  0  2  0  0  0  0  0  0  0  0  0
    2.3380   16.7010  -10.6330 O   0  0  0  0  0  0  0  0  0  0  0  0
    2.1910   15.2720  -10.6110 C   0  0  0  0  0  0  0  0  0  0  0  0
    1.1330   14.7540  -11.5340 C   0  0  0  0  0  0  0  0  0  0  0  0
    3.4930   14.5330  -10.6050 C   0  0  0  0  0  0  0  0  0  0  0  0
    0.5070   14.3310   -6.0330 C   0  0  1  0  0  0  0  0  0  0  0  0
    1.7580   13.6720   -6.6740 C   0  0  0  0  0  0  0  0  0  0  0  0
    2.4840   12.8980   -5.5430 C   0  0  0  0  0  0  0  0  0  0  0  0
    1.4650   12.8590   -4.3810 C   0  0  1  0  0  0  0  0  0  0  0  0
    0.4980   11.6860   -4.7340 C   0  0  0  0  0  0  0  0  0  0  0  0
    2.0620   12.7030   -2.9440 C   0  0  2  0  0  0  0  0  0  0  0  0
    2.8320   11.3940   -2.6960 C   0  0  0  0  0  0  0  0  0  0  0  0
    2.0120   10.2600   -2.1750 C   0  0  0  0  0  0  0  0  0  0  0  0
    0.7780   10.3660   -1.6470 C   0  0  0  0  0  0  0  0  0  0  0  0
    0.1220   11.7380   -1.4450 C   0  0  1  0  0  0  0  0  0  0  0  0
   -0.4980   11.8110   -0.0250 C   0  0  0  0  0  0  0  0  0  0  0  0
   -1.4590   10.6590    0.2540 C   0  0  0  0  0  0  0  0  0  0  0  0
   -0.7550    9.3130    0.0990 C   0  0  2  0  0  0  0  0  0  0  0  0
    0.2290    9.1860    1.1300 O   0  0  0  0  0  0  0  0  0  0  0  0
   -0.0830    9.1290   -1.2900 C   0  0  0  0  0  0  0  0  0  0  0  0
   -1.1730    8.9640   -2.3780 C   0  0  0  0  0  0  0  0  0  0  0  0
    0.7090    7.7940   -1.2640 C   0  0  0  0  0  0  0  0  0  0  0  0
    1.0320   12.9970   -1.7790 C   0  0  1  0  0  0  0  0  0  0  0  0
    1.8760   13.3900   -0.5280 C   0  0  0  0  0  0  0  0  0  0  0  0
    0.1070   14.2310   -2.0960 C   0  0  0  0  0  0  0  0  0  0  0  0
   -0.3520   14.3980   -3.5570 C   0  0  0  0  0  0  0  0  0  0  0  0
    0.8340   14.2930   -4.5200 C   0  0  2  0  0  0  0  0  0  0  0  0
    1.8140   15.4740   -4.2030 C   0  0  0  0  0  0  0  0  0  0  0  0
   -0.7085   16.2501   -4.7552 H   0  0  0  0  0  0  0  0  0  0  0  0
   -0.9302   17.4527   -6.0710 H   0  0  0  0  0  0  0  0  0  0  0  0
   -1.8898   15.9342   -6.0710 H   0  0  0  0  0  0  0  0  0  0  0  0
    1.0724   16.3319   -6.6162 H   0  0  0  0  0  0  0  0  0  0  0  0
    0.0721   14.5075   -8.4477 H   0  0  0  0  0  0  0  0  0  0  0  0
   -1.3038   15.6833   -8.1845 H   0  0  0  0  0  0  0  0  0  0  0  0
   -0.1518   16.6024   -9.9850 H   0  0  0  0  0  0  0  0  0  0  0  0
    0.4793   17.5029   -8.5434 H   0  0  0  0  0  0  0  0  0  0  0  0
    2.1156   16.0658   -8.3486 H   0  0  0  0  0  0  0  0  0  0  0  0
    0.2993   14.3458  -10.9438 H   0  0  0  0  0  0  0  0  0  0  0  0
    0.7661   15.5744  -12.1683 H   0  0  0  0  0  0  0  0  0  0  0  0
    1.5560   13.9611  -12.1683 H   0  0  0  0  0  0  0  0  0  0  0  0
    3.8083   14.3541   -9.5664 H   0  0  0  0  0  0  0  0  0  0  0  0
    3.3703   13.5699  -11.1221 H   0  0  0  0  0  0  0  0  0  0  0  0
    4.2570   15.1321  -11.1221 H   0  0  0  0  0  0  0  0  0  0  0  0
   -0.4421   13.8093   -6.2252 H   0  0  0  0  0  0  0  0  0  0  0  0
    1.4541   12.9793   -7.4726 H   0  0  0  0  0  0  0  0  0  0  0  0
    2.4183   14.4295   -7.1215 H   0  0  0  0  0  0  0  0  0  0  0  0
    2.7383   11.8793   -5.8709 H   0  0  0  0  0  0  0  0  0  0  0  0
    3.4309   13.3760   -5.2516 H   0  0  0  0  0  0  0  0  0  0  0  0
    0.1216   11.2294   -3.8067 H   0  0  0  0  0  0  0  0  0  0  0  0
   -0.3476   12.0722   -5.3220 H   0  0  0  0  0  0  0  0  0  0  0  0
    1.0384   10.9296   -5.3220 H   0  0  0  0  0  0  0  0  0  0  0  0
    2.8158   13.5035   -2.9135 H   0  0  0  0  0  0  0  0  0  0  0  0
    3.2816   11.0785   -3.6490 H   0  0  0  0  0  0  0  0  0  0  0  0
    3.5711   11.6196   -1.9132 H   0  0  0  0  0  0  0  0  0  0  0  0
    2.4531    9.2537   -2.2269 H   0  0  0  0  0  0  0  0  0  0  0  0
   -0.6718   11.8106   -2.2030 H   0  0  0  0  0  0  0  0  0  0  0  0
    0.3141   11.7801    0.7163 H   0  0  0  0  0  0  0  0  0  0  0  0
   -1.0713   12.7475    0.0412 H   0  0  0  0  0  0  0  0  0  0  0  0
   -1.8411   10.7495    1.2815 H   0  0  0  0  0  0  0  0  0  0  0  0
   -2.2864   10.7084   -0.4691 H   0  0  0  0  0  0  0  0  0  0  0  0
   -1.5216    8.5286    0.1825 H   0  0  0  0  0  0  0  0  0  0  0  0
    1.0250    9.6610    0.8370 H   0  0  0  0  0  0  0  0  0  0  0  0
   -2.1513    8.8159   -1.8974 H   0  0  0  0  0  0  0  0  0  0  0  0
   -1.2053    9.8675   -3.0046 H   0  0  0  0  0  0  0  0  0  0  0  0
   -0.9365    8.0914   -3.0046 H   0  0  0  0  0  0  0  0  0  0  0  0
    0.8872    7.4936   -0.2209 H   0  0  0  0  0  0  0  0  0  0  0  0
    0.1280    7.0130   -1.7763 H   0  0  0  0  0  0  0  0  0  0  0  0
    1.6729    7.9295   -1.7763 H   0  0  0  0  0  0  0  0  0  0  0  0
    1.3202   13.1312    0.3853 H   0  0  0  0  0  0  0  0  0  0  0  0
    2.8307   12.8438   -0.5434 H   0  0  0  0  0  0  0  0  0  0  0  0
    2.0724   14.4722   -0.5434 H   0  0  0  0  0  0  0  0  0  0  0  0
   -0.7945   14.1400   -1.4723 H   0  0  0  0  0  0  0  0  0  0  0  0
    0.7257   15.1159   -1.8858 H   0  0  0  0  0  0  0  0  0  0  0  0
   -1.0813   13.6104   -3.7972 H   0  0  0  0  0  0  0  0  0  0  0  0
   -0.8080   15.3927   -3.6697 H   0  0  0  0  0  0  0  0  0  0  0  0
    1.9093   15.5889   -3.1132 H   0  0  0  0  0  0  0  0  0  0  0  0
    2.8015   15.2575   -4.6367 H   0  0  0  0  0  0  0  0  0  0  0  0
    1.4191   16.4046   -4.6367 H   0  0  0  0  0  0  0  0  0  0  0  0
  1  2  1  0
  2  3  1  0
  3  4  1  0
  4  5  1  0
  5  6  1  0
  6  7  1  0
  7  8  1  0
  7  9  1  0
  2 10  1  0
 10 11  1  0
 11 12  1  0
 12 13  1  0
 13 14  1  6
 13 15  1  0
 15 16  1  0
 16 17  1  0
 17 18  2  0
 18 19  1  0
 19 20  1  0
 20 21  1  0
 21 22  1  0
 22 23  1  0
 22 24  1  0
 24 25  1  0
 24 26  1  0
 19 27  1  0
 27 28  1  1
 27 29  1  0
 29 30  1  0
 30 31  1  0
 31 32  1  1
  7  5  1  0
 31 10  1  0
 31 13  1  0
 27 15  1  0
 24 18  1  0
  1 33  1  0
  1 34  1  0
  1 35  1  0
  2 36  1  6
  3 37  1  0
  3 38  1  0
  4 39  1  0
  4 40  1  0
  5 41  1  1
  8 42  1  0
  8 43  1  0
  8 44  1  0
  9 45  1  0
  9 46  1  0
  9 47  1  0
 10 48  1  1
 11 49  1  0
 11 50  1  0
 12 51  1  0
 12 52  1  0
 14 53  1  0
 14 54  1  0
 14 55  1  0
 15 56  1  6
 16 57  1  0
 16 58  1  0
 17 59  1  0
 19 60  1  6
 20 61  1  0
 20 62  1  0
 21 63  1  0
 21 64  1  0
 22 65  1  1
 23 66  1  0
 25 67  1  0
 25 68  1  0
 25 69  1  0
 26 70  1  0
 26 71  1  0
 26 72  1  0
 28 73  1  0
 28 74  1  0
 28 75  1  0
 29 76  1  0
 29 77  1  0
 30 78  1  0
 30 79  1  0
 32 80  1  0
 32 81  1  0
 32 82  1  0
M  END
>  <meeko>  (8) 
{"is_sidechain": [false], "intermolecular_energy": 2.731, "internal_energy": -0.839}

$$$$
EPH_relaxed_0001_pdb2pqr_Repair_282_r2_0001_out
     RDKit          3D

 82 86  0  0  0  0  0  0  0  0999 V2000
   -3.7720    7.1820   -3.3760 C   0  0  0  0  0  0  0  0  0  0  0  0
   -3.7660    7.2640   -1.8470 C   0  0  2  0  0  0  0  0  0  0  0  0
   -5.1700    7.0510   -1.2480 C   0  0  0  0  0  0  0  0  0  0  0  0
   -6.3080    7.3100   -2.2390 C   0  0  0  0  0  0  0  0  0  0  0  0
   -7.6320    7.4260   -1.5460 C   0  0  2  0  0  0  0  0  0  0  0  0
   -8.1810    6.1820   -1.0940 O   0  0  0  0  0  0  0  0  0  0  0  0
   -8.9240    6.8690   -2.1130 C   0  0  0  0  0  0  0  0  0  0  0  0
   -8.9560    6.1560   -3.4280 C   0  0  0  0  0  0  0  0  0  0  0  0
  -10.2210    7.4410   -1.6320 C   0  0  0  0  0  0  0  0  0  0  0  0
   -3.2090    8.6120   -1.4010 C   0  0  1  0  0  0  0  0  0  0  0  0
   -3.8320    9.1040   -0.0680 C   0  0  0  0  0  0  0  0  0  0  0  0
   -2.7130    9.8570    0.6970 C   0  0  0  0  0  0  0  0  0  0  0  0
   -1.5930   10.0610   -0.3510 C   0  0  1  0  0  0  0  0  0  0  0  0
   -2.0400   11.3070   -1.1780 C   0  0  0  0  0  0  0  0  0  0  0  0
   -0.1440   10.2310    0.2110 C   0  0  2  0  0  0  0  0  0  0  0  0
    0.0690   11.4650    1.1050 C   0  0  0  0  0  0  0  0  0  0  0  0
    0.5030   12.7020    0.3900 C   0  0  0  0  0  0  0  0  0  0  0  0
    0.9870   12.7510   -0.8650 C   0  0  0  0  0  0  0  0  0  0  0  0
    1.2310   11.4660   -1.6660 C   0  0  1  0  0  0  0  0  0  0  0  0
    2.6280   11.5310   -2.3370 C   0  0  0  0  0  0  0  0  0  0  0  0
    2.8130   12.7890   -3.1810 C   0  0  0  0  0  0  0  0  0  0  0  0
    2.6210   14.0460   -2.3360 C   0  0  2  0  0  0  0  0  0  0  0  0
    3.6810   14.1250   -1.3790 O   0  0  0  0  0  0  0  0  0  0  0  0
    1.2510   14.0870   -1.6030 C   0  0  0  0  0  0  0  0  0  0  0  0
    0.1150   14.3050   -2.6330 C   0  0  0  0  0  0  0  0  0  0  0  0
    1.2420   15.3330   -0.6770 C   0  0  0  0  0  0  0  0  0  0  0  0
    0.9940   10.1040   -0.8810 C   0  0  1  0  0  0  0  0  0  0  0  0
    2.2940    9.6930   -0.1250 C   0  0  0  0  0  0  0  0  0  0  0  0
    0.7020    8.9570   -1.9190 C   0  0  0  0  0  0  0  0  0  0  0  0
   -0.7660    8.7620   -2.3450 C   0  0  0  0  0  0  0  0  0  0  0  0
   -1.6870    8.6950   -1.1220 C   0  0  2  0  0  0  0  0  0  0  0  0
   -1.2760    7.4380   -0.2820 C   0  0  0  0  0  0  0  0  0  0  0  0
   -3.8490    6.1295   -3.6864 H   0  0  0  0  0  0  0  0  0  0  0  0
   -4.6314    7.7443   -3.7700 H   0  0  0  0  0  0  0  0  0  0  0  0
   -2.8399    7.6132   -3.7700 H   0  0  0  0  0  0  0  0  0  0  0  0
   -3.1221    6.4534   -1.4751 H   0  0  0  0  0  0  0  0  0  0  0  0
   -5.2441    6.0107   -0.8983 H   0  0  0  0  0  0  0  0  0  0  0  0
   -5.2842    7.7779   -0.4304 H   0  0  0  0  0  0  0  0  0  0  0  0
   -6.1047    8.2470   -2.7781 H   0  0  0  0  0  0  0  0  0  0  0  0
   -6.3582    6.4582   -2.9332 H   0  0  0  0  0  0  0  0  0  0  0  0
   -7.3663    8.4182   -1.1524 H   0  0  0  0  0  0  0  0  0  0  0  0
   -9.0047    5.0707   -3.2555 H   0  0  0  0  0  0  0  0  0  0  0  0
   -9.8407    6.4768   -3.9976 H   0  0  0  0  0  0  0  0  0  0  0  0
   -8.0462    6.3963   -3.9976 H   0  0  0  0  0  0  0  0  0  0  0  0
  -10.2338    7.4466   -0.5321 H   0  0  0  0  0  0  0  0  0  0  0  0
  -10.3287    8.4701   -2.0052 H   0  0  0  0  0  0  0  0  0  0  0  0
  -11.0536    6.8266   -2.0052 H   0  0  0  0  0  0  0  0  0  0  0  0
   -3.4635    9.2180   -2.2830 H   0  0  0  0  0  0  0  0  0  0  0  0
   -4.6744    9.7817   -0.2708 H   0  0  0  0  0  0  0  0  0  0  0  0
   -4.2164    8.2602    0.5238 H   0  0  0  0  0  0  0  0  0  0  0  0
   -3.0798   10.8258    1.0670 H   0  0  0  0  0  0  0  0  0  0  0  0
   -2.3629    9.3001    1.5787 H   0  0  0  0  0  0  0  0  0  0  0  0
   -2.3306   12.1169   -0.4927 H   0  0  0  0  0  0  0  0  0  0  0  0
   -1.2068   11.6444   -1.8121 H   0  0  0  0  0  0  0  0  0  0  0  0
   -2.8976   11.0378   -1.8121 H   0  0  0  0  0  0  0  0  0  0  0  0
   -0.0458    9.3605    0.8763 H   0  0  0  0  0  0  0  0  0  0  0  0
   -0.8805   11.6829    1.6159 H   0  0  0  0  0  0  0  0  0  0  0  0
    0.8886   11.2063    1.7915 H   0  0  0  0  0  0  0  0  0  0  0  0
    0.4201   13.6538    0.9351 H   0  0  0  0  0  0  0  0  0  0  0  0
    0.4475   11.4356   -2.4375 H   0  0  0  0  0  0  0  0  0  0  0  0
    3.3977   11.5170   -1.5513 H   0  0  0  0  0  0  0  0  0  0  0  0
    2.7178   10.6630   -3.0067 H   0  0  0  0  0  0  0  0  0  0  0  0
    3.8279   12.7919   -3.6052 H   0  0  0  0  0  0  0  0  0  0  0  0
    2.0608   12.7871   -3.9836 H   0  0  0  0  0  0  0  0  0  0  0  0
    2.6379   14.9083   -3.0187 H   0  0  0  0  0  0  0  0  0  0  0  0
    4.5210   14.0980   -1.8680 H   0  0  0  0  0  0  0  0  0  0  0  0
   -0.8312   14.4866   -2.1023 H   0  0  0  0  0  0  0  0  0  0  0  0
    0.3540   15.1737   -3.2641 H   0  0  0  0  0  0  0  0  0  0  0  0
    0.0155   13.4096   -3.2641 H   0  0  0  0  0  0  0  0  0  0  0  0
    1.2443   15.0087    0.3741 H   0  0  0  0  0  0  0  0  0  0  0  0
    2.1358   15.9431   -0.8745 H   0  0  0  0  0  0  0  0  0  0  0  0
    0.3395   15.9301   -0.8745 H   0  0  0  0  0  0  0  0  0  0  0  0
    2.1202    9.7479    0.9598 H   0  0  0  0  0  0  0  0  0  0  0  0
    2.5688    8.6642   -0.4007 H   0  0  0  0  0  0  0  0  0  0  0  0
    3.1103   10.3769   -0.4007 H   0  0  0  0  0  0  0  0  0  0  0  0
    1.2858    9.1726   -2.8260 H   0  0  0  0  0  0  0  0  0  0  0  0
    0.9780    8.0254   -1.4034 H   0  0  0  0  0  0  0  0  0  0  0  0
   -1.0718    9.6065   -2.9801 H   0  0  0  0  0  0  0  0  0  0  0  0
   -0.8481    7.8150   -2.8986 H   0  0  0  0  0  0  0  0  0  0  0  0
   -1.3526    7.6723    0.7900 H   0  0  0  0  0  0  0  0  0  0  0  0
   -1.9471    6.6004   -0.5231 H   0  0  0  0  0  0  0  0  0  0  0  0
   -0.2397    7.1587   -0.5231 H   0  0  0  0  0  0  0  0  0  0  0  0
  1  2  1  0
  2  3  1  0
  3  4  1  0
  4  5  1  0
  5  6  1  0
  6  7  1  0
  7  8  1  0
  7  9  1  0
  2 10  1  0
 10 11  1  0
 11 12  1  0
 12 13  1  0
 13 14  1  6
 13 15  1  0
 15 16  1  0
 16 17  1  0
 17 18  2  0
 18 19  1  0
 19 20  1  0
 20 21  1  0
 21 22  1  0
 22 23  1  0
 22 24  1  0
 24 25  1  0
 24 26  1  0
 19 27  1  0
 27 28  1  1
 27 29  1  0
 29 30  1  0
 30 31  1  0
 31 32  1  1
  7  5  1  0
 31 10  1  0
 31 13  1  0
 27 15  1  0
 24 18  1  0
  1 33  1  0
  1 34  1  0
  1 35  1  0
  2 36  1  1
  3 37  1  0
  3 38  1  0
  4 39  1  0
  4 40  1  0
  5 41  1  1
  8 42  1  0
  8 43  1  0
  8 44  1  0
  9 45  1  0
  9 46  1  0
  9 47  1  0
 10 48  1  6
 11 49  1  0
 11 50  1  0
 12 51  1  0
 12 52  1  0
 14 53  1  0
 14 54  1  0
 14 55  1  0
 15 56  1  1
 16 57  1  0
 16 58  1  0
 17 59  1  0
 19 60  1  6
 20 61  1  0
 20 62  1  0
 21 63  1  0
 21 64  1  0
 22 65  1  6
 23 66  1  0
 25 67  1  0
 25 68  1  0
 25 69  1  0
 26 70  1  0
 26 71  1  0
 26 72  1  0
 28 73  1  0
 28 74  1  0
 28 75  1  0
 29 76  1  0
 29 77  1  0
 30 78  1  0
 30 79  1  0
 32 80  1  0
 32 81  1  0
 32 82  1  0
M  END
>  <meeko>  (9) 
{"is_sidechain": [false], "intermolecular_energy": 2.731, "internal_energy": -0.839}

$$$$
EPH_relaxed_0001_pdb2pqr_Repair_282_r2_0001_out
     RDKit          3D

 82 86  0  0  0  0  0  0  0  0999 V2000
   -0.0840    9.2920   -2.2040 C   0  0  0  0  0  0  0  0  0  0  0  0
    0.9500   10.2950   -2.7230 C   0  0  2  0  0  0  0  0  0  0  0  0
    2.3480    9.6630   -2.8720 C   0  0  0  0  0  0  0  0  0  0  0  0
    3.2620   10.4120   -3.8460 C   0  0  0  0  0  0  0  0  0  0  0  0
    4.6500   10.5600   -3.3010 C   0  0  2  0  0  0  0  0  0  0  0  0
    5.2700   11.8220   -3.5790 O   0  0  0  0  0  0  0  0  0  0  0  0
    5.8850   10.6690   -4.1760 C   0  0  0  0  0  0  0  0  0  0  0  0
    5.7890   10.6340   -5.6690 C   0  0  0  0  0  0  0  0  0  0  0  0
    7.2150   10.3200   -3.5840 C   0  0  0  0  0  0  0  0  0  0  0  0
    1.0190   11.4990   -1.7910 C   0  0  1  0  0  0  0  0  0  0  0  0
    2.1170   11.3510   -0.7040 C   0  0  0  0  0  0  0  0  0  0  0  0
    2.6950   12.7680   -0.4550 C   0  0  0  0  0  0  0  0  0  0  0  0
    1.6980   13.7230   -1.1520 C   0  0  1  0  0  0  0  0  0  0  0  0
    0.5230   13.8870   -0.1380 C   0  0  0  0  0  0  0  0  0  0  0  0
    2.2680   15.1070   -1.6040 C   0  0  2  0  0  0  0  0  0  0  0  0
    2.7790   16.0060   -0.4640 C   0  0  0  0  0  0  0  0  0  0  0  0
    1.7650   16.9310    0.1220 C   0  0  0  0  0  0  0  0  0  0  0  0
    0.5780   17.2430   -0.4310 C   0  0  0  0  0  0  0  0  0  0  0  0
    0.1960   16.7190   -1.8220 C   0  0  1  0  0  0  0  0  0  0  0  0
   -0.3860   17.8800   -2.6700 C   0  0  0  0  0  0  0  0  0  0  0  0
   -1.5440   18.5890   -1.9750 C   0  0  0  0  0  0  0  0  0  0  0  0
   -1.1090   19.1470   -0.6220 C   0  0  2  0  0  0  0  0  0  0  0  0
   -0.1570   20.1930   -0.8390 O   0  0  0  0  0  0  0  0  0  0  0  0
   -0.4970   18.0690    0.3160 C   0  0  0  0  0  0  0  0  0  0  0  0
   -1.6090   17.1020    0.7930 C   0  0  0  0  0  0  0  0  0  0  0  0
    0.0290   18.7870    1.5880 C   0  0  0  0  0  0  0  0  0  0  0  0
    1.3240   15.9060   -2.5910 C   0  0  1  0  0  0  0  0  0  0  0  0
    2.2390   16.8880   -3.3850 C   0  0  0  0  0  0  0  0  0  0  0  0
    0.6450   14.9700   -3.6590 C   0  0  0  0  0  0  0  0  0  0  0  0
    0.2120   13.5710   -3.1820 C   0  0  0  0  0  0  0  0  0  0  0  0
    1.3480   12.8730   -2.4280 C   0  0  2  0  0  0  0  0  0  0  0  0
    2.5360   12.6740   -3.4290 C   0  0  0  0  0  0  0  0  0  0  0  0
   -0.0793    9.2966   -1.1040 H   0  0  0  0  0  0  0  0  0  0  0  0
   -1.0831    9.5741   -2.5676 H   0  0  0  0  0  0  0  0  0  0  0  0
    0.1676    8.2848   -2.5676 H   0  0  0  0  0  0  0  0  0  0  0  0
    0.6255   10.6173   -3.7234 H   0  0  0  0  0  0  0  0  0  0  0  0
    2.8303    9.6501   -1.8835 H   0  0  0  0  0  0  0  0  0  0  0  0
    2.2018    8.6525   -3.2812 H   0  0  0  0  0  0  0  0  0  0  0  0
    3.3083    9.8535   -4.7925 H   0  0  0  0  0  0  0  0  0  0  0  0
    2.8458   11.4182   -4.0020 H   0  0  0  0  0  0  0  0  0  0  0  0
    4.4080    9.9148   -2.4436 H   0  0  0  0  0  0  0  0  0  0  0  0
    4.7934   10.2710   -5.9640 H   0  0  0  0  0  0  0  0  0  0  0  0
    5.9439   11.6464   -6.0702 H   0  0  0  0  0  0  0  0  0  0  0  0
    6.5592    9.9588   -6.0702 H   0  0  0  0  0  0  0  0  0  0  0  0
    7.1441   10.3386   -2.4864 H   0  0  0  0  0  0  0  0  0  0  0  0
    7.5111    9.3137   -3.9153 H   0  0  0  0  0  0  0  0  0  0  0  0
    7.9671   11.0512   -3.9153 H   0  0  0  0  0  0  0  0  0  0  0  0
   -0.0132   11.4975   -1.4107 H   0  0  0  0  0  0  0  0  0  0  0  0
    1.6804   10.9518    0.2234 H   0  0  0  0  0  0  0  0  0  0  0  0
    2.9042   10.6555   -1.0304 H   0  0  0  0  0  0  0  0  0  0  0  0
    2.7489   12.9817    0.6227 H   0  0  0  0  0  0  0  0  0  0  0  0
    3.7181   12.8759   -0.8443 H   0  0  0  0  0  0  0  0  0  0  0  0
    0.9143   13.8324    0.8886 H   0  0  0  0  0  0  0  0  0  0  0  0
    0.0374   14.8616   -0.2940 H   0  0  0  0  0  0  0  0  0  0  0  0
   -0.2109   13.0826   -0.2940 H   0  0  0  0  0  0  0  0  0  0  0  0
    3.1598   14.8180   -2.1795 H   0  0  0  0  0  0  0  0  0  0  0  0
    3.1510   15.3554    0.3412 H   0  0  0  0  0  0  0  0  0  0  0  0
    3.5555   16.6470   -0.9068 H   0  0  0  0  0  0  0  0  0  0  0  0
    2.0083   17.3975    1.0880 H   0  0  0  0  0  0  0  0  0  0  0  0
   -0.5766   15.9535   -1.6574 H   0  0  0  0  0  0  0  0  0  0  0  0
    0.4125   18.6123   -2.8603 H   0  0  0  0  0  0  0  0  0  0  0  0
   -0.7718   17.4491   -3.6057 H   0  0  0  0  0  0  0  0  0  0  0  0
   -1.8929   19.4164   -2.6103 H   0  0  0  0  0  0  0  0  0  0  0  0
   -2.3533   17.8622   -1.8113 H   0  0  0  0  0  0  0  0  0  0  0  0
   -2.0088   19.5282   -0.1170 H   0  0  0  0  0  0  0  0  0  0  0  0
    0.5840   19.8160   -1.3440 H   0  0  0  0  0  0  0  0  0  0  0  0
   -1.6312   17.0827    1.8926 H   0  0  0  0  0  0  0  0  0  0  0  0
   -2.5821   17.4460    0.4126 H   0  0  0  0  0  0  0  0  0  0  0  0
   -1.4034   16.0906    0.4126 H   0  0  0  0  0  0  0  0  0  0  0  0
   -0.3489   18.2711    2.4830 H   0  0  0  0  0  0  0  0  0  0  0  0
    1.1288   18.7685    1.5911 H   0  0  0  0  0  0  0  0  0  0  0  0
   -0.3202   19.8301    1.5911 H   0  0  0  0  0  0  0  0  0  0  0  0
    2.8141   17.5052   -2.6791 H   0  0  0  0  0  0  0  0  0  0  0  0
    2.9313   16.3135   -4.0180 H   0  0  0  0  0  0  0  0  0  0  0  0
    1.6171   17.5380   -4.0180 H   0  0  0  0  0  0  0  0  0  0  0  0
   -0.2517   15.4866   -4.0320 H   0  0  0  0  0  0  0  0  0  0  0  0
    1.4213   14.7880   -4.4168 H   0  0  0  0  0  0  0  0  0  0  0  0
   -0.6555   13.6714   -2.5131 H   0  0  0  0  0  0  0  0  0  0  0  0
   -0.0487   12.9653   -4.0624 H   0  0  0  0  0  0  0  0  0  0  0  0
    3.4679   12.5179   -2.8657 H   0  0  0  0  0  0  0  0  0  0  0  0
    2.3389   11.7964   -4.0622 H   0  0  0  0  0  0  0  0  0  0  0  0
    2.6356   13.5680   -4.0622 H   0  0  0  0  0  0  0  0  0  0  0  0
  1  2  1  0
  2  3  1  0
  3  4  1  0
  4  5  1  0
  5  6  1  0
  6  7  1  0
  7  8  1  0
  7  9  1  0
  2 10  1  0
 10 11  1  0
 11 12  1  0
 12 13  1  0
 13 14  1  1
 13 15  1  0
 15 16  1  0
 16 17  1  0
 17 18  2  0
 18 19  1  0
 19 20  1  0
 20 21  1  0
 21 22  1  0
 22 23  1  0
 22 24  1  0
 24 25  1  0
 24 26  1  0
 19 27  1  0
 27 28  1  6
 27 29  1  0
 29 30  1  0
 30 31  1  0
 31 32  1  6
  7  5  1  0
 31 10  1  0
 31 13  1  0
 27 15  1  0
 24 18  1  0
  1 33  1  0
  1 34  1  0
  1 35  1  0
  2 36  1  6
  3 37  1  0
  3 38  1  0
  4 39  1  0
  4 40  1  0
  5 41  1  1
  8 42  1  0
  8 43  1  0
  8 44  1  0
  9 45  1  0
  9 46  1  0
  9 47  1  0
 10 48  1  1
 11 49  1  0
 11 50  1  0
 12 51  1  0
 12 52  1  0
 14 53  1  0
 14 54  1  0
 14 55  1  0
 15 56  1  6
 16 57  1  0
 16 58  1  0
 17 59  1  0
 19 60  1  1
 20 61  1  0
 20 62  1  0
 21 63  1  0
 21 64  1  0
 22 65  1  1
 23 66  1  0
 25 67  1  0
 25 68  1  0
 25 69  1  0
 26 70  1  0
 26 71  1  0
 26 72  1  0
 28 73  1  0
 28 74  1  0
 28 75  1  0
 29 76  1  0
 29 77  1  0
 30 78  1  0
 30 79  1  0
 32 80  1  0
 32 81  1  0
 32 82  1  0
M  END
>  <meeko>  (10) 
{"is_sidechain": [false], "intermolecular_energy": 2.731, "internal_energy": -0.839}

$$$$
EPH_relaxed_0001_pdb2pqr_Repair_282_r2_0001_out
     RDKit          3D

 82 86  0  0  0  0  0  0  0  0999 V2000
   -0.2830   15.0380   -7.6810 C   0  0  0  0  0  0  0  0  0  0  0  0
    1.0700   15.0510   -6.9650 C   0  0  2  0  0  0  0  0  0  0  0  0
    2.2490   15.1630   -7.9520 C   0  0  0  0  0  0  0  0  0  0  0  0
    2.2810   16.4840   -8.7250 C   0  0  0  0  0  0  0  0  0  0  0  0
    1.8780   16.2990  -10.1570 C   0  0  2  0  0  0  0  0  0  0  0  0
    1.1830   15.0750  -10.4290 O   0  0  0  0  0  0  0  0  0  0  0  0
    2.4650   15.2290  -11.0590 C   0  0  0  0  0  0  0  0  0  0  0  0
    3.5060   14.2750  -10.5630 C   0  0  0  0  0  0  0  0  0  0  0  0
    2.3890   15.4230  -12.5410 C   0  0  0  0  0  0  0  0  0  0  0  0
    1.2200   13.7940   -6.1150 C   0  0  1  0  0  0  0  0  0  0  0  0
    2.6560   13.2070   -6.1650 C   0  0  0  0  0  0  0  0  0  0  0  0
    2.9470   12.6170   -4.7610 C   0  0  0  0  0  0  0  0  0  0  0  0
    1.5690   12.5840   -4.0580 C   0  0  1  0  0  0  0  0  0  0  0  0
    0.8760   11.2930   -4.5960 C   0  0  0  0  0  0  0  0  0  0  0  0
    1.5900   12.6210   -2.4960 C   0  0  2  0  0  0  0  0  0  0  0  0
    2.2840   11.4230   -1.8240 C   0  0  0  0  0  0  0  0  0  0  0  0
    1.3950   10.2670   -1.5050 C   0  0  0  0  0  0  0  0  0  0  0  0
    0.0500   10.2970   -1.4860 C   0  0  0  0  0  0  0  0  0  0  0  0
   -0.7120   11.6100   -1.7080 C   0  0  1  0  0  0  0  0  0  0  0  0
   -1.8240   11.7510   -0.6360 C   0  0  0  0  0  0  0  0  0  0  0  0
   -2.7500   10.5400   -0.5900 C   0  0  0  0  0  0  0  0  0  0  0  0
   -1.9640    9.2620   -0.3090 C   0  0  2  0  0  0  0  0  0  0  0  0
   -1.4340    9.3290    1.0180 O   0  0  0  0  0  0  0  0  0  0  0  0
   -0.8090    9.0190   -1.3210 C   0  0  0  0  0  0  0  0  0  0  0  0
   -1.3980    8.6470   -2.7040 C   0  0  0  0  0  0  0  0  0  0  0  0
   -0.0090    7.7770   -0.8420 C   0  0  0  0  0  0  0  0  0  0  0  0
    0.1820   12.9170   -1.8360 C   0  0  1  0  0  0  0  0  0  0  0  0
    0.4690   13.5060   -0.4200 C   0  0  0  0  0  0  0  0  0  0  0  0
   -0.6260   14.0180   -2.6190 C   0  0  0  0  0  0  0  0  0  0  0  0
   -0.5100   14.0040   -4.1550 C   0  0  0  0  0  0  0  0  0  0  0  0
    0.9550   13.9290   -4.5940 C   0  0  2  0  0  0  0  0  0  0  0  0
    1.6740   15.2250   -4.0870 C   0  0  0  0  0  0  0  0  0  0  0  0
   -1.0921   15.0302   -6.9358 H   0  0  0  0  0  0  0  0  0  0  0  0
   -0.3732   15.9353   -8.3108 H   0  0  0  0  0  0  0  0  0  0  0  0
   -0.3559   14.1391   -8.3108 H   0  0  0  0  0  0  0  0  0  0  0  0
    1.0943   15.9417   -6.3200 H   0  0  0  0  0  0  0  0  0  0  0  0
    3.1868   15.0697   -7.3848 H   0  0  0  0  0  0  0  0  0  0  0  0
    2.1252   14.3597   -8.6932 H   0  0  0  0  0  0  0  0  0  0  0  0
    1.5877   17.1927   -8.2484 H   0  0  0  0  0  0  0  0  0  0  0  0
    3.3119   16.8673   -8.7059 H   0  0  0  0  0  0  0  0  0  0  0  0
    1.7489   17.3837  -10.2863 H   0  0  0  0  0  0  0  0  0  0  0  0
    3.5076   14.2735   -9.4630 H   0  0  0  0  0  0  0  0  0  0  0  0
    3.2809   13.2630  -10.9307 H   0  0  0  0  0  0  0  0  0  0  0  0
    4.4946   14.5873  -10.9307 H   0  0  0  0  0  0  0  0  0  0  0  0
    1.9958   16.4268  -12.7597 H   0  0  0  0  0  0  0  0  0  0  0  0
    3.3939   15.3200  -12.9763 H   0  0  0  0  0  0  0  0  0  0  0  0
    1.7214   14.6648  -12.9763 H   0  0  0  0  0  0  0  0  0  0  0  0
    0.4457   13.1643   -6.5776 H   0  0  0  0  0  0  0  0  0  0  0  0
    2.7159   12.4168   -6.9278 H   0  0  0  0  0  0  0  0  0  0  0  0
    3.3908   13.9823   -6.4277 H   0  0  0  0  0  0  0  0  0  0  0  0
    3.3645   11.6028   -4.8449 H   0  0  0  0  0  0  0  0  0  0  0  0
    3.6855   13.2118   -4.2035 H   0  0  0  0  0  0  0  0  0  0  0  0
    0.5441   10.6748   -3.7488 H   0  0  0  0  0  0  0  0  0  0  0  0
    0.0064   11.5720   -5.2092 H   0  0  0  0  0  0  0  0  0  0  0  0
    1.5891   10.7224   -5.2092 H   0  0  0  0  0  0  0  0  0  0  0  0
    2.2297   13.4917   -2.2893 H   0  0  0  0  0  0  0  0  0  0  0  0
    3.0758   11.0665   -2.4992 H   0  0  0  0  0  0  0  0  0  0  0  0
    2.6608   11.7922   -0.8587 H   0  0  0  0  0  0  0  0  0  0  0  0
    1.8806    9.3096   -1.2652 H   0  0  0  0  0  0  0  0  0  0  0  0
   -1.1651   11.5335   -2.7074 H   0  0  0  0  0  0  0  0  0  0  0  0
   -1.3503   11.8702    0.3496 H   0  0  0  0  0  0  0  0  0  0  0  0
   -2.4338   12.6273   -0.9012 H   0  0  0  0  0  0  0  0  0  0  0  0
   -3.4950   10.6867    0.2059 H   0  0  0  0  0  0  0  0  0  0  0  0
   -3.2453   10.4397   -1.5671 H   0  0  0  0  0  0  0  0  0  0  0  0
   -2.6593    8.4165   -0.4166 H   0  0  0  0  0  0  0  0  0  0  0  0
   -2.0480    8.8550    1.6040 H   0  0  0  0  0  0  0  0  0  0  0  0
   -2.3206    8.0643   -2.5649 H   0  0  0  0  0  0  0  0  0  0  0  0
   -1.6255    9.5656   -3.2647 H   0  0  0  0  0  0  0  0  0  0  0  0
   -0.6663    8.0468   -3.2647 H   0  0  0  0  0  0  0  0  0  0  0  0
    0.0067    7.7527    0.2576 H   0  0  0  0  0  0  0  0  0  0  0  0
   -0.4886    6.8630   -1.2222 H   0  0  0  0  0  0  0  0  0  0  0  0
    1.0215    7.8357   -1.2222 H   0  0  0  0  0  0  0  0  0  0  0  0
    0.1242   12.7983    0.3483 H   0  0  0  0  0  0  0  0  0  0  0  0
    1.5500   13.6741   -0.3050 H   0  0  0  0  0  0  0  0  0  0  0  0
   -0.0648   14.4609   -0.3050 H   0  0  0  0  0  0  0  0  0  0  0  0
   -1.6890   13.8947   -2.3644 H   0  0  0  0  0  0  0  0  0  0  0  0
   -0.1850   14.9758   -2.3058 H   0  0  0  0  0  0  0  0  0  0  0  0
   -1.0487   13.1293   -4.5485 H   0  0  0  0  0  0  0  0  0  0  0  0
   -0.9464   14.9342   -4.5479 H   0  0  0  0  0  0  0  0  0  0  0  0
    1.6795   15.2348   -2.9871 H   0  0  0  0  0  0  0  0  0  0  0  0
    2.7091   15.2394   -4.4590 H   0  0  0  0  0  0  0  0  0  0  0  0
    1.1384   16.1109   -4.4590 H   0  0  0  0  0  0  0  0  0  0  0  0
  1  2  1  0
  2  3  1  0
  3  4  1  0
  4  5  1  0
  5  6  1  0
  6  7  1  0
  7  8  1  0
  7  9  1  0
  2 10  1  0
 10 11  1  0
 11 12  1  0
 12 13  1  0
 13 14  1  1
 13 15  1  0
 15 16  1  0
 16 17  1  0
 17 18  2  0
 18 19  1  0
 19 20  1  0
 20 21  1  0
 21 22  1  0
 22 23  1  0
 22 24  1  0
 24 25  1  0
 24 26  1  0
 19 27  1  0
 27 28  1  1
 27 29  1  0
 29 30  1  0
 30 31  1  0
 31 32  1  1
  7  5  1  0
 31 10  1  0
 31 13  1  0
 27 15  1  0
 24 18  1  0
  1 33  1  0
  1 34  1  0
  1 35  1  0
  2 36  1  1
  3 37  1  0
  3 38  1  0
  4 39  1  0
  4 40  1  0
  5 41  1  6
  8 42  1  0
  8 43  1  0
  8 44  1  0
  9 45  1  0
  9 46  1  0
  9 47  1  0
 10 48  1  6
 11 49  1  0
 11 50  1  0
 12 51  1  0
 12 52  1  0
 14 53  1  0
 14 54  1  0
 14 55  1  0
 15 56  1  6
 16 57  1  0
 16 58  1  0
 17 59  1  0
 19 60  1  6
 20 61  1  0
 20 62  1  0
 21 63  1  0
 21 64  1  0
 22 65  1  1
 23 66  1  0
 25 67  1  0
 25 68  1  0
 25 69  1  0
 26 70  1  0
 26 71  1  0
 26 72  1  0
 28 73  1  0
 28 74  1  0
 28 75  1  0
 29 76  1  0
 29 77  1  0
 30 78  1  0
 30 79  1  0
 32 80  1  0
 32 81  1  0
 32 82  1  0
M  END
>  <meeko>  (11) 
{"is_sidechain": [false], "intermolecular_energy": 2.731, "internal_energy": -0.839}

$$$$
EPH_relaxed_0001_pdb2pqr_Repair_282_r2_0001_out
     RDKit          3D

 82 86  0  0  0  0  0  0  0  0999 V2000
    3.1070   18.8000   -2.1640 C   0  0  0  0  0  0  0  0  0  0  0  0
    1.7010   18.8220   -1.5570 C   0  0  2  0  0  0  0  0  0  0  0  0
    1.5670   19.8760   -0.4400 C   0  0  0  0  0  0  0  0  0  0  0  0
    2.8870   20.1920    0.2700 C   0  0  0  0  0  0  0  0  0  0  0  0
    3.0610   19.3680    1.5090 C   0  0  2  0  0  0  0  0  0  0  0  0
    3.4400   20.1120    2.6750 O   0  0  0  0  0  0  0  0  0  0  0  0
    4.4000   19.1570    2.1920 C   0  0  0  0  0  0  0  0  0  0  0  0
    5.6540   19.7740    1.6580 C   0  0  0  0  0  0  0  0  0  0  0  0
    4.5680   17.9680    3.0850 C   0  0  0  0  0  0  0  0  0  0  0  0
    1.3480   17.4420   -1.0150 C   0  0  1  0  0  0  0  0  0  0  0  0
    0.1230   17.4690   -0.0630 C   0  0  0  0  0  0  0  0  0  0  0  0
   -0.6500   16.1450   -0.2900 C   0  0  0  0  0  0  0  0  0  0  0  0
    0.3210   15.2620   -1.1090 C   0  0  1  0  0  0  0  0  0  0  0  0
    1.2990   14.6570   -0.0540 C   0  0  0  0  0  0  0  0  0  0  0  0
   -0.3340   14.1510   -1.9930 C   0  0  2  0  0  0  0  0  0  0  0  0
   -1.1160   13.0770   -1.2180 C   0  0  0  0  0  0  0  0  0  0  0  0
   -0.3200   11.8840   -0.8030 C   0  0  0  0  0  0  0  0  0  0  0  0
    0.8920   11.5470   -1.2820 C   0  0  0  0  0  0  0  0  0  0  0  0
    1.5420   12.3500   -2.4160 C   0  0  1  0  0  0  0  0  0  0  0  0
    2.1040   11.3760   -3.4850 C   0  0  0  0  0  0  0  0  0  0  0  0
    3.0500   10.3380   -2.8890 C   0  0  0  0  0  0  0  0  0  0  0  0
    2.3500    9.5200   -1.8060 C   0  0  2  0  0  0  0  0  0  0  0  0
    1.3250    8.7290   -2.4160 O   0  0  0  0  0  0  0  0  0  0  0  0
    1.7350   10.3960   -0.6790 C   0  0  0  0  0  0  0  0  0  0  0  0
    2.8670   11.0180    0.1740 C   0  0  0  0  0  0  0  0  0  0  0  0
    0.9390    9.4610    0.2710 C   0  0  0  0  0  0  0  0  0  0  0  0
    0.6480   13.5020   -3.0500 C   0  0  1  0  0  0  0  0  0  0  0  0
   -0.2450   12.9170   -4.1870 C   0  0  0  0  0  0  0  0  0  0  0  0
    1.5880   14.5680   -3.7280 C   0  0  0  0  0  0  0  0  0  0  0  0
    2.1060   15.7070   -2.8300 C   0  0  0  0  0  0  0  0  0  0  0  0
    0.9600   16.3520   -2.0450 C   0  0  2  0  0  0  0  0  0  0  0  0
   -0.0300   16.9890   -3.0800 C   0  0  0  0  0  0  0  0  0  0  0  0
    3.8546   18.7883   -1.3571 H   0  0  0  0  0  0  0  0  0  0  0  0
    3.2241   17.8999   -2.7854 H   0  0  0  0  0  0  0  0  0  0  0  0
    3.2522   19.6960   -2.7854 H   0  0  0  0  0  0  0  0  0  0  0  0
    0.9992   19.0985   -2.3576 H   0  0  0  0  0  0  0  0  0  0  0  0
    1.1803   20.8052   -0.8839 H   0  0  0  0  0  0  0  0  0  0  0  0
    0.8870   19.4577    0.3168 H   0  0  0  0  0  0  0  0  0  0  0  0
    3.7202   19.9830   -0.4170 H   0  0  0  0  0  0  0  0  0  0  0  0
    2.8737   21.2523    0.5625 H   0  0  0  0  0  0  0  0  0  0  0  0
    2.2819   18.6649    1.1793 H   0  0  0  0  0  0  0  0  0  0  0  0
    6.2935   20.0886    2.4959 H   0  0  0  0  0  0  0  0  0  0  0  0
    6.1918   19.0376    1.0427 H   0  0  0  0  0  0  0  0  0  0  0  0
    5.3987   20.6494    1.0427 H   0  0  0  0  0  0  0  0  0  0  0  0
    4.5226   18.2895    4.1360 H   0  0  0  0  0  0  0  0  0  0  0  0
    3.7631   17.2446    2.8877 H   0  0  0  0  0  0  0  0  0  0  0  0
    5.5418   17.4959    2.8877 H   0  0  0  0  0  0  0  0  0  0  0  0
    2.3029   17.1830   -0.5342 H   0  0  0  0  0  0  0  0  0  0  0  0
    0.4575   17.5377    0.9827 H   0  0  0  0  0  0  0  0  0  0  0  0
   -0.5170   18.3398   -0.2681 H   0  0  0  0  0  0  0  0  0  0  0  0
   -0.8928   15.6674    0.6707 H   0  0  0  0  0  0  0  0  0  0  0  0
   -1.6071   16.3042   -0.8083 H   0  0  0  0  0  0  0  0  0  0  0  0
    0.9326   14.8837    0.9581 H   0  0  0  0  0  0  0  0  0  0  0  0
    1.3544   13.5666   -0.1882 H   0  0  0  0  0  0  0  0  0  0  0  0
    2.2994   15.0942   -0.1882 H   0  0  0  0  0  0  0  0  0  0  0  0
   -1.0874   14.7155   -2.5619 H   0  0  0  0  0  0  0  0  0  0  0  0
   -1.5268   13.5440   -0.3107 H   0  0  0  0  0  0  0  0  0  0  0  0
   -1.8865   12.7037   -1.9086 H   0  0  0  0  0  0  0  0  0  0  0  0
   -0.7614   11.2245   -0.0412 H   0  0  0  0  0  0  0  0  0  0  0  0
    2.3664   12.9140   -1.9554 H   0  0  0  0  0  0  0  0  0  0  0  0
    1.2626   10.8532   -3.9632 H   0  0  0  0  0  0  0  0  0  0  0  0
    2.6758   11.9712   -4.2122 H   0  0  0  0  0  0  0  0  0  0  0  0
    3.3913    9.6619   -3.6867 H   0  0  0  0  0  0  0  0  0  0  0  0
    3.9052   10.8612   -2.4363 H   0  0  0  0  0  0  0  0  0  0  0  0
    3.1102    8.8841   -1.3287 H   0  0  0  0  0  0  0  0  0  0  0  0
    0.6880    8.4880   -1.7220 H   0  0  0  0  0  0  0  0  0  0  0  0
    2.6343   10.8901    1.2415 H   0  0  0  0  0  0  0  0  0  0  0  0
    3.8181   10.5158   -0.0566 H   0  0  0  0  0  0  0  0  0  0  0  0
    2.9531   12.0901   -0.0566 H   0  0  0  0  0  0  0  0  0  0  0  0
    1.1624    9.7234    1.3156 H   0  0  0  0  0  0  0  0  0  0  0  0
   -0.1386    9.5808    0.0852 H   0  0  0  0  0  0  0  0  0  0  0  0
    1.2292    8.4164    0.0852 H   0  0  0  0  0  0  0  0  0  0  0  0
   -1.0874   12.3652   -3.7444 H   0  0  0  0  0  0  0  0  0  0  0  0
   -0.6309   13.7379   -4.8092 H   0  0  0  0  0  0  0  0  0  0  0  0
    0.3534   12.2353   -4.8092 H   0  0  0  0  0  0  0  0  0  0  0  0
    2.4632   14.0343   -4.1269 H   0  0  0  0  0  0  0  0  0  0  0  0
    0.9637   15.0611   -4.4876 H   0  0  0  0  0  0  0  0  0  0  0  0
    2.8426   15.2999   -2.1217 H   0  0  0  0  0  0  0  0  0  0  0  0
    2.5683   16.4740   -3.4688 H   0  0  0  0  0  0  0  0  0  0  0  0
   -0.8374   17.5085   -2.5432 H   0  0  0  0  0  0  0  0  0  0  0  0
    0.5123   17.7080   -3.7115 H   0  0  0  0  0  0  0  0  0  0  0  0
   -0.4596   16.1974   -3.7115 H   0  0  0  0  0  0  0  0  0  0  0  0
  1  2  1  0
  2  3  1  0
  3  4  1  0
  4  5  1  0
  5  6  1  0
  6  7  1  0
  7  8  1  0
  7  9  1  0
  2 10  1  0
 10 11  1  0
 11 12  1  0
 12 13  1  0
 13 14  1  1
 13 15  1  0
 15 16  1  0
 16 17  1  0
 17 18  2  0
 18 19  1  0
 19 20  1  0
 20 21  1  0
 21 22  1  0
 22 23  1  0
 22 24  1  0
 24 25  1  0
 24 26  1  0
 19 27  1  0
 27 28  1  6
 27 29  1  0
 29 30  1  0
 30 31  1  0
 31 32  1  6
  7  5  1  0
 31 10  1  0
 31 13  1  0
 27 15  1  0
 24 18  1  0
  1 33  1  0
  1 34  1  0
  1 35  1  0
  2 36  1  6
  3 37  1  0
  3 38  1  0
  4 39  1  0
  4 40  1  0
  5 41  1  1
  8 42  1  0
  8 43  1  0
  8 44  1  0
  9 45  1  0
  9 46  1  0
  9 47  1  0
 10 48  1  1
 11 49  1  0
 11 50  1  0
 12 51  1  0
 12 52  1  0
 14 53  1  0
 14 54  1  0
 14 55  1  0
 15 56  1  6
 16 57  1  0
 16 58  1  0
 17 59  1  0
 19 60  1  1
 20 61  1  0
 20 62  1  0
 21 63  1  0
 21 64  1  0
 22 65  1  1
 23 66  1  0
 25 67  1  0
 25 68  1  0
 25 69  1  0
 26 70  1  0
 26 71  1  0
 26 72  1  0
 28 73  1  0
 28 74  1  0
 28 75  1  0
 29 76  1  0
 29 77  1  0
 30 78  1  0
 30 79  1  0
 32 80  1  0
 32 81  1  0
 32 82  1  0
M  END
>  <meeko>  (12) 
{"is_sidechain": [false], "intermolecular_energy": 2.731, "internal_energy": -0.839}

$$$$
EPH_relaxed_0001_pdb2pqr_Repair_282_r2_0001_out
     RDKit          3D

 82 86  0  0  0  0  0  0  0  0999 V2000
   -2.1880    7.8400   -2.0470 C   0  0  0  0  0  0  0  0  0  0  0  0
   -2.2510    8.5050   -0.6690 C   0  0  2  0  0  0  0  0  0  0  0  0
   -3.6820    8.5170   -0.0950 C   0  0  0  0  0  0  0  0  0  0  0  0
   -4.7750    8.5280   -1.1670 C   0  0  0  0  0  0  0  0  0  0  0  0
   -5.8660    7.5490   -0.8550 C   0  0  2  0  0  0  0  0  0  0  0  0
   -5.4660    6.1730   -0.8980 O   0  0  0  0  0  0  0  0  0  0  0  0
   -6.4380    6.5810   -1.8750 C   0  0  0  0  0  0  0  0  0  0  0  0
   -5.9360    6.5460   -3.2840 C   0  0  0  0  0  0  0  0  0  0  0  0
   -7.8040    6.0170   -1.6380 C   0  0  0  0  0  0  0  0  0  0  0  0
   -1.7110    9.9280   -0.7530 C   0  0  1  0  0  0  0  0  0  0  0  0
   -1.2530   10.4760    0.6250 C   0  0  0  0  0  0  0  0  0  0  0  0
   -0.0250   11.3840    0.3590 C   0  0  0  0  0  0  0  0  0  0  0  0
   -0.0200   11.5950   -1.1730 C   0  0  1  0  0  0  0  0  0  0  0  0
   -1.0690   12.7240   -1.4260 C   0  0  0  0  0  0  0  0  0  0  0  0
    1.3620   11.9360   -1.8200 C   0  0  2  0  0  0  0  0  0  0  0  0
    1.9970   13.2550   -1.3460 C   0  0  0  0  0  0  0  0  0  0  0  0
    1.6390   14.4600   -2.1510 C   0  0  0  0  0  0  0  0  0  0  0  0
    1.0750   14.4450   -3.3730 C   0  0  0  0  0  0  0  0  0  0  0  0
    0.8280   13.1230   -4.1100 C   0  0  1  0  0  0  0  0  0  0  0  0
    1.3090   13.2520   -5.5800 C   0  0  0  0  0  0  0  0  0  0  0  0
    0.6850   14.4450   -6.2970 C   0  0  0  0  0  0  0  0  0  0  0  0
    1.0020   15.7470   -5.5660 C   0  0  2  0  0  0  0  0  0  0  0  0
    2.4070   15.9980   -5.6580 O   0  0  0  0  0  0  0  0  0  0  0  0
    0.5710   15.7320   -4.0720 C   0  0  0  0  0  0  0  0  0  0  0  0
   -0.9750   15.7630   -3.9760 C   0  0  0  0  0  0  0  0  0  0  0  0
    1.0740   17.0460   -3.4170 C   0  0  0  0  0  0  0  0  0  0  0  0
    1.3870   11.8170   -3.3980 C   0  0  1  0  0  0  0  0  0  0  0  0
    2.8740   11.5840   -3.8030 C   0  0  0  0  0  0  0  0  0  0  0  0
    0.5840   10.5650   -3.9160 C   0  0  0  0  0  0  0  0  0  0  0  0
   -0.7110   10.2090   -3.1610 C   0  0  0  0  0  0  0  0  0  0  0  0
   -0.4700   10.1650   -1.6490 C   0  0  2  0  0  0  0  0  0  0  0  0
    0.5650    9.0240   -1.3620 C   0  0  0  0  0  0  0  0  0  0  0  0
   -2.0849    6.7517   -1.9246 H   0  0  0  0  0  0  0  0  0  0  0  0
   -3.1111    8.0606   -2.6031 H   0  0  0  0  0  0  0  0  0  0  0  0
   -1.3228    8.2300   -2.6031 H   0  0  0  0  0  0  0  0  0  0  0  0
   -1.6265    7.9106    0.0141 H   0  0  0  0  0  0  0  0  0  0  0  0
   -3.8143    7.6192    0.5267 H   0  0  0  0  0  0  0  0  0  0  0  0
   -3.7889    9.4470    0.4826 H   0  0  0  0  0  0  0  0  0  0  0  0
   -5.2077    9.5377   -1.2249 H   0  0  0  0  0  0  0  0  0  0  0  0
   -4.3187    8.2396   -2.1255 H   0  0  0  0  0  0  0  0  0  0  0  0
   -6.3424    8.2629   -0.1670 H   0  0  0  0  0  0  0  0  0  0  0  0
   -4.8387    6.4695   -3.2805 H   0  0  0  0  0  0  0  0  0  0  0  0
   -6.3626    5.6754   -3.8037 H   0  0  0  0  0  0  0  0  0  0  0  0
   -6.2377    7.4674   -3.8037 H   0  0  0  0  0  0  0  0  0  0  0  0
   -7.9868    5.9415   -0.5559 H   0  0  0  0  0  0  0  0  0  0  0  0
   -8.5573    6.6777   -2.0919 H   0  0  0  0  0  0  0  0  0  0  0  0
   -7.8718    5.0173   -2.0919 H   0  0  0  0  0  0  0  0  0  0  0  0
   -2.5880   10.4332   -1.1838 H   0  0  0  0  0  0  0  0  0  0  0  0
   -2.0622   11.0593    1.0887 H   0  0  0  0  0  0  0  0  0  0  0  0
   -0.9964    9.6554    1.3111 H   0  0  0  0  0  0  0  0  0  0  0  0
   -0.1321   12.3452    0.8830 H   0  0  0  0  0  0  0  0  0  0  0  0
    0.9117   10.9353    0.7212 H   0  0  0  0  0  0  0  0  0  0  0  0
   -1.4296   13.1121   -0.4620 H   0  0  0  0  0  0  0  0  0  0  0  0
   -0.6001   13.5389   -1.9971 H   0  0  0  0  0  0  0  0  0  0  0  0
   -1.9161   12.3162   -1.9971 H   0  0  0  0  0  0  0  0  0  0  0  0
    2.0081   11.1359   -1.4296 H   0  0  0  0  0  0  0  0  0  0  0  0
    1.6780   13.4323   -0.3083 H   0  0  0  0  0  0  0  0  0  0  0  0
    3.0839   13.1267   -1.4567 H   0  0  0  0  0  0  0  0  0  0  0  0
    1.8544   15.4435   -1.7080 H   0  0  0  0  0  0  0  0  0  0  0  0
   -0.2596   12.9600   -4.0856 H   0  0  0  0  0  0  0  0  0  0  0  0
    2.4026   13.3707   -5.5841 H   0  0  0  0  0  0  0  0  0  0  0  0
    0.9986   12.3418   -6.1140 H   0  0  0  0  0  0  0  0  0  0  0  0
    1.0852   14.4998   -7.3201 H   0  0  0  0  0  0  0  0  0  0  0  0
   -0.4066   14.3107   -6.3179 H   0  0  0  0  0  0  0  0  0  0  0  0
    0.4232   16.5464   -6.0518 H   0  0  0  0  0  0  0  0  0  0  0  0
    2.5940   16.2980   -6.5640 H   0  0  0  0  0  0  0  0  0  0  0  0
   -1.2766   15.7690   -2.9182 H   0  0  0  0  0  0  0  0  0  0  0  0
   -1.3550   16.6689   -4.4708 H   0  0  0  0  0  0  0  0  0  0  0  0
   -1.3910   14.8730   -4.4708 H   0  0  0  0  0  0  0  0  0  0  0  0
    1.0364   16.9477   -2.3221 H   0  0  0  0  0  0  0  0  0  0  0  0
    2.1099   17.2397   -3.7324 H   0  0  0  0  0  0  0  0  0  0  0  0
    0.4323   17.8819   -3.7324 H   0  0  0  0  0  0  0  0  0  0  0  0
    3.4900   11.4875   -2.8968 H   0  0  0  0  0  0  0  0  0  0  0  0
    2.9517   10.6627   -4.3990 H   0  0  0  0  0  0  0  0  0  0  0  0
    3.2297   12.4374   -4.3990 H   0  0  0  0  0  0  0  0  0  0  0  0
    0.3160   10.7528   -4.9662 H   0  0  0  0  0  0  0  0  0  0  0  0
    1.2545    9.7075   -3.7575 H   0  0  0  0  0  0  0  0  0  0  0  0
   -1.4762   10.9679   -3.3814 H   0  0  0  0  0  0  0  0  0  0  0  0
   -1.0476    9.2153   -3.4915 H   0  0  0  0  0  0  0  0  0  0  0  0
    0.6796    8.8977   -0.2753 H   0  0  0  0  0  0  0  0  0  0  0  0
    0.2058    8.0832   -1.8046 H   0  0  0  0  0  0  0  0  0  0  0  0
    1.5362    9.2901   -1.8046 H   0  0  0  0  0  0  0  0  0  0  0  0
  1  2  1  0
  2  3  1  0
  3  4  1  0
  4  5  1  0
  5  6  1  0
  6  7  1  0
  7  8  1  0
  7  9  1  0
  2 10  1  0
 10 11  1  0
 11 12  1  0
 12 13  1  0
 13 14  1  1
 13 15  1  0
 15 16  1  0
 16 17  1  0
 17 18  2  0
 18 19  1  0
 19 20  1  0
 20 21  1  0
 21 22  1  0
 22 23  1  0
 22 24  1  0
 24 25  1  0
 24 26  1  0
 19 27  1  0
 27 28  1  6
 27 29  1  0
 29 30  1  0
 30 31  1  0
 31 32  1  6
  7  5  1  0
 31 10  1  0
 31 13  1  0
 27 15  1  0
 24 18  1  0
  1 33  1  0
  1 34  1  0
  1 35  1  0
  2 36  1  1
  3 37  1  0
  3 38  1  0
  4 39  1  0
  4 40  1  0
  5 41  1  1
  8 42  1  0
  8 43  1  0
  8 44  1  0
  9 45  1  0
  9 46  1  0
  9 47  1  0
 10 48  1  6
 11 49  1  0
 11 50  1  0
 12 51  1  0
 12 52  1  0
 14 53  1  0
 14 54  1  0
 14 55  1  0
 15 56  1  1
 16 57  1  0
 16 58  1  0
 17 59  1  0
 19 60  1  6
 20 61  1  0
 20 62  1  0
 21 63  1  0
 21 64  1  0
 22 65  1  6
 23 66  1  0
 25 67  1  0
 25 68  1  0
 25 69  1  0
 26 70  1  0
 26 71  1  0
 26 72  1  0
 28 73  1  0
 28 74  1  0
 28 75  1  0
 29 76  1  0
 29 77  1  0
 30 78  1  0
 30 79  1  0
 32 80  1  0
 32 81  1  0
 32 82  1  0
M  END
>  <meeko>  (13) 
{"is_sidechain": [false], "intermolecular_energy": 2.731, "internal_energy": -0.839}

$$$$
EPH_relaxed_0001_pdb2pqr_Repair_282_r2_0001_out
     RDKit          3D

 82 86  0  0  0  0  0  0  0  0999 V2000
   -0.1810   17.2530   -2.2180 C   0  0  0  0  0  0  0  0  0  0  0  0
   -0.2290   16.4590   -0.9100 C   0  0  2  0  0  0  0  0  0  0  0  0
   -0.0620   17.3650    0.3260 C   0  0  0  0  0  0  0  0  0  0  0  0
   -0.2230   18.8570    0.0220 C   0  0  0  0  0  0  0  0  0  0  0  0
    0.9050   19.6640    0.5910 C   0  0  2  0  0  0  0  0  0  0  0  0
    1.8270   20.1730   -0.3820 O   0  0  0  0  0  0  0  0  0  0  0  0
    2.3550   19.2180    0.5530 C   0  0  0  0  0  0  0  0  0  0  0  0
    2.7550   17.9160   -0.0680 C   0  0  0  0  0  0  0  0  0  0  0  0
    3.3110   19.8080    1.5420 C   0  0  0  0  0  0  0  0  0  0  0  0
    0.8490   15.3820   -0.9160 C   0  0  1  0  0  0  0  0  0  0  0  0
    0.9870   14.6670    0.4550 C   0  0  0  0  0  0  0  0  0  0  0  0
    1.3420   13.1880    0.1540 C   0  0  0  0  0  0  0  0  0  0  0  0
    1.7210   13.1750   -1.3450 C   0  0  1  0  0  0  0  0  0  0  0  0
    3.2000   13.6710   -1.3900 C   0  0  0  0  0  0  0  0  0  0  0  0
    1.5460   11.8110   -2.0900 C   0  0  2  0  0  0  0  0  0  0  0  0
    2.4230   10.6620   -1.5610 C   0  0  0  0  0  0  0  0  0  0  0  0
    3.7590   10.5270   -2.2140 C   0  0  0  0  0  0  0  0  0  0  0  0
    4.1260   11.1080   -3.3710 C   0  0  0  0  0  0  0  0  0  0  0  0
    3.1220   11.9200   -4.1990 C   0  0  1  0  0  0  0  0  0  0  0  0
    3.2250   11.5050   -5.6900 C   0  0  0  0  0  0  0  0  0  0  0  0
    4.6470   11.6120   -6.2300 C   0  0  0  0  0  0  0  0  0  0  0  0
    5.6060   10.7460   -5.4170 C   0  0  2  0  0  0  0  0  0  0  0  0
    5.2720    9.3700   -5.6240 O   0  0  0  0  0  0  0  0  0  0  0  0
    5.5820   11.0670   -3.8970 C   0  0  0  0  0  0  0  0  0  0  0  0
    6.2290   12.4520   -3.6470 C   0  0  0  0  0  0  0  0  0  0  0  0
    6.4860   10.0310   -3.1760 C   0  0  0  0  0  0  0  0  0  0  0  0
    1.6240   11.9190   -3.6670 C   0  0  1  0  0  0  0  0  0  0  0  0
    0.8580   10.6860   -4.2360 C   0  0  0  0  0  0  0  0  0  0  0  0
    0.8830   13.1950   -4.2160 C   0  0  0  0  0  0  0  0  0  0  0  0
    0.9940   14.4800   -3.3740 C   0  0  0  0  0  0  0  0  0  0  0  0
    0.6690   14.2010   -1.9030 C   0  0  2  0  0  0  0  0  0  0  0  0
   -0.8200   13.7220   -1.8250 C   0  0  0  0  0  0  0  0  0  0  0  0
   -0.1160   18.3277   -1.9924 H   0  0  0  0  0  0  0  0  0  0  0  0
    0.7003   16.9467   -2.8007 H   0  0  0  0  0  0  0  0  0  0  0  0
   -1.0927   17.0551   -2.8007 H   0  0  0  0  0  0  0  0  0  0  0  0
   -1.2221   15.9906   -0.8437 H   0  0  0  0  0  0  0  0  0  0  0  0
   -0.8189   17.0788    1.0711 H   0  0  0  0  0  0  0  0  0  0  0  0
    0.9646   17.2209    0.6937 H   0  0  0  0  0  0  0  0  0  0  0  0
   -0.2473   18.9979   -1.0687 H   0  0  0  0  0  0  0  0  0  0  0  0
   -1.1591   19.2021    0.4852 H   0  0  0  0  0  0  0  0  0  0  0  0
    0.2653   20.0248    1.4099 H   0  0  0  0  0  0  0  0  0  0  0  0
    2.9793   17.1858    0.7235 H   0  0  0  0  0  0  0  0  0  0  0  0
    1.9313   17.5390   -0.6919 H   0  0  0  0  0  0  0  0  0  0  0  0
    3.6483   18.0665   -0.6919 H   0  0  0  0  0  0  0  0  0  0  0  0
    2.9620   19.5926    2.5627 H   0  0  0  0  0  0  0  0  0  0  0  0
    4.3085   19.3682    1.3951 H   0  0  0  0  0  0  0  0  0  0  0  0
    3.3651   20.8968    1.3951 H   0  0  0  0  0  0  0  0  0  0  0  0
    1.7162   15.9910   -1.2113 H   0  0  0  0  0  0  0  0  0  0  0  0
    1.7865   15.1354    1.0478 H   0  0  0  0  0  0  0  0  0  0  0  0
    0.0546   14.7396    1.0341 H   0  0  0  0  0  0  0  0  0  0  0  0
    2.1904   12.8588    0.7719 H   0  0  0  0  0  0  0  0  0  0  0  0
    0.5098   12.5050    0.3797 H   0  0  0  0  0  0  0  0  0  0  0  0
    3.5758   13.7970   -0.3639 H   0  0  0  0  0  0  0  0  0  0  0  0
    3.8189   12.9312   -1.9189 H   0  0  0  0  0  0  0  0  0  0  0  0
    3.2477   14.6343   -1.9189 H   0  0  0  0  0  0  0  0  0  0  0  0
    0.5106   11.5364   -1.8401 H   0  0  0  0  0  0  0  0  0  0  0  0
    2.5853   10.8257   -0.4854 H   0  0  0  0  0  0  0  0  0  0  0  0
    1.8781    9.7338   -1.7879 H   0  0  0  0  0  0  0  0  0  0  0  0
    4.5064    9.8996   -1.7064 H   0  0  0  0  0  0  0  0  0  0  0  0
    3.4146   12.9741   -4.0843 H   0  0  0  0  0  0  0  0  0  0  0  0
    2.8873   10.4629   -5.7901 H   0  0  0  0  0  0  0  0  0  0  0  0
    2.5942   12.1928   -6.2723 H   0  0  0  0  0  0  0  0  0  0  0  0
    4.6603   11.2776   -7.2778 H   0  0  0  0  0  0  0  0  0  0  0  0
    4.9725   12.6602   -6.1566 H   0  0  0  0  0  0  0  0  0  0  0  0
    6.6257   10.9642   -5.7671 H   0  0  0  0  0  0  0  0  0  0  0  0
    5.1220    8.9700   -4.7510 H   0  0  0  0  0  0  0  0  0  0  0  0
    6.3113   12.6282   -2.5643 H   0  0  0  0  0  0  0  0  0  0  0  0
    7.2313   12.4755   -4.0996 H   0  0  0  0  0  0  0  0  0  0  0  0
    5.6038   13.2358   -4.0996 H   0  0  0  0  0  0  0  0  0  0  0  0
    6.3828   10.1492   -2.0872 H   0  0  0  0  0  0  0  0  0  0  0  0
    6.1811    9.0144   -3.4650 H   0  0  0  0  0  0  0  0  0  0  0  0
    7.5346   10.1954   -3.4650 H   0  0  0  0  0  0  0  0  0  0  0  0
    0.4781   10.0745   -3.4043 H   0  0  0  0  0  0  0  0  0  0  0  0
    0.0148   11.0307   -4.8526 H   0  0  0  0  0  0  0  0  0  0  0  0
    1.5406   10.0828   -4.8526 H   0  0  0  0  0  0  0  0  0  0  0  0
    1.2927   13.4143   -5.2130 H   0  0  0  0  0  0  0  0  0  0  0  0
   -0.1856   12.9345   -4.2031 H   0  0  0  0  0  0  0  0  0  0  0  0
    2.0193   14.8714   -3.4481 H   0  0  0  0  0  0  0  0  0  0  0  0
    0.2725   15.2155   -3.7594 H   0  0  0  0  0  0  0  0  0  0  0  0
   -1.1194   13.6257   -0.7709 H   0  0  0  0  0  0  0  0  0  0  0  0
   -1.4682   14.4569   -2.3246 H   0  0  0  0  0  0  0  0  0  0  0  0
   -0.9182   12.7469   -2.3246 H   0  0  0  0  0  0  0  0  0  0  0  0
  1  2  1  0
  2  3  1  0
  3  4  1  0
  4  5  1  0
  5  6  1  0
  6  7  1  0
  7  8  1  0
  7  9  1  0
  2 10  1  0
 10 11  1  0
 11 12  1  0
 12 13  1  0
 13 14  1  1
 13 15  1  0
 15 16  1  0
 16 17  1  0
 17 18  2  0
 18 19  1  0
 19 20  1  0
 20 21  1  0
 21 22  1  0
 22 23  1  0
 22 24  1  0
 24 25  1  0
 24 26  1  0
 19 27  1  0
 27 28  1  6
 27 29  1  0
 29 30  1  0
 30 31  1  0
 31 32  1  6
  7  5  1  0
 31 10  1  0
 31 13  1  0
 27 15  1  0
 24 18  1  0
  1 33  1  0
  1 34  1  0
  1 35  1  0
  2 36  1  1
  3 37  1  0
  3 38  1  0
  4 39  1  0
  4 40  1  0
  5 41  1  1
  8 42  1  0
  8 43  1  0
  8 44  1  0
  9 45  1  0
  9 46  1  0
  9 47  1  0
 10 48  1  6
 11 49  1  0
 11 50  1  0
 12 51  1  0
 12 52  1  0
 14 53  1  0
 14 54  1  0
 14 55  1  0
 15 56  1  6
 16 57  1  0
 16 58  1  0
 17 59  1  0
 19 60  1  6
 20 61  1  0
 20 62  1  0
 21 63  1  0
 21 64  1  0
 22 65  1  6
 23 66  1  0
 25 67  1  0
 25 68  1  0
 25 69  1  0
 26 70  1  0
 26 71  1  0
 26 72  1  0
 28 73  1  0
 28 74  1  0
 28 75  1  0
 29 76  1  0
 29 77  1  0
 30 78  1  0
 30 79  1  0
 32 80  1  0
 32 81  1  0
 32 82  1  0
M  END
>  <meeko>  (14) 
{"is_sidechain": [false], "intermolecular_energy": 2.731, "internal_energy": -0.839}

$$$$
EPH_relaxed_0001_pdb2pqr_Repair_282_r2_0001_out
     RDKit          3D

 82 86  0  0  0  0  0  0  0  0999 V2000
    0.2860    9.8960   -4.6810 C   0  0  0  0  0  0  0  0  0  0  0  0
    1.3210   10.5940   -3.7940 C   0  0  2  0  0  0  0  0  0  0  0  0
    1.7000    9.7440   -2.5650 C   0  0  0  0  0  0  0  0  0  0  0  0
    0.6450    8.7010   -2.1890 C   0  0  0  0  0  0  0  0  0  0  0  0
   -0.2080    9.1620   -1.0460 C   0  0  2  0  0  0  0  0  0  0  0  0
   -0.7230    8.1090   -0.2210 O   0  0  0  0  0  0  0  0  0  0  0  0
   -1.6950    8.8800   -0.9450 C   0  0  0  0  0  0  0  0  0  0  0  0
   -2.4170    8.1090   -2.0050 C   0  0  0  0  0  0  0  0  0  0  0  0
   -2.5330    9.7640   -0.0740 C   0  0  0  0  0  0  0  0  0  0  0  0
    0.7910   11.9510   -3.3460 C   0  0  1  0  0  0  0  0  0  0  0  0
   -0.7190   11.9140   -2.9890 C   0  0  0  0  0  0  0  0  0  0  0  0
   -0.9250   12.9030   -1.8130 C   0  0  0  0  0  0  0  0  0  0  0  0
    0.3900   13.7150   -1.7510 C   0  0  1  0  0  0  0  0  0  0  0  0
    0.2420   14.8050   -2.8580 C   0  0  0  0  0  0  0  0  0  0  0  0
    0.7490   14.3440   -0.3650 C   0  0  2  0  0  0  0  0  0  0  0  0
   -0.2560   15.3850    0.1580 C   0  0  0  0  0  0  0  0  0  0  0  0
    0.0220   16.7970   -0.2400 C   0  0  0  0  0  0  0  0  0  0  0  0
    1.1830   17.2530   -0.7450 C   0  0  0  0  0  0  0  0  0  0  0  0
    2.4030   16.3320   -0.8690 C   0  0  1  0  0  0  0  0  0  0  0  0
    3.6610   17.0630   -0.3300 C   0  0  0  0  0  0  0  0  0  0  0  0
    3.8810   18.4170   -0.9970 C   0  0  0  0  0  0  0  0  0  0  0  0
    2.6700   19.3250   -0.8020 C   0  0  2  0  0  0  0  0  0  0  0  0
    2.5570   19.6500    0.5870 O   0  0  0  0  0  0  0  0  0  0  0  0
    1.3410   18.6900   -1.2990 C   0  0  0  0  0  0  0  0  0  0  0  0
    1.3470   18.6160   -2.8460 C   0  0  0  0  0  0  0  0  0  0  0  0
    0.1810   19.6470   -0.9150 C   0  0  0  0  0  0  0  0  0  0  0  0
    2.2370   14.8740   -0.2600 C   0  0  1  0  0  0  0  0  0  0  0  0
    2.5980   14.8870    1.2570 C   0  0  0  0  0  0  0  0  0  0  0  0
    3.2670   13.9060   -0.9530 C   0  0  0  0  0  0  0  0  0  0  0  0
    2.8090   13.2210   -2.2560 C   0  0  0  0  0  0  0  0  0  0  0  0
    1.4290   12.5810   -2.0820 C   0  0  2  0  0  0  0  0  0  0  0  0
    1.5520   11.4650   -0.9900 C   0  0  0  0  0  0  0  0  0  0  0  0
   -0.4598    9.3930   -4.0480 H   0  0  0  0  0  0  0  0  0  0  0  0
   -0.2150   10.6414   -5.3161 H   0  0  0  0  0  0  0  0  0  0  0  0
    0.7894    9.1522   -5.3161 H   0  0  0  0  0  0  0  0  0  0  0  0
    2.2327   10.7309   -4.3941 H   0  0  0  0  0  0  0  0  0  0  0  0
    2.6432    9.2212   -2.7819 H   0  0  0  0  0  0  0  0  0  0  0  0
    1.7885   10.4334   -1.7124 H   0  0  0  0  0  0  0  0  0  0  0  0
    0.0015    8.5144   -3.0614 H   0  0  0  0  0  0  0  0  0  0  0  0
    1.1658    7.7828   -1.8795 H   0  0  0  0  0  0  0  0  0  0  0  0
    0.3746   10.0906   -0.9549 H   0  0  0  0  0  0  0  0  0  0  0  0
   -3.0960    7.3839   -1.5327 H   0  0  0  0  0  0  0  0  0  0  0  0
   -2.9984    8.8021   -2.6308 H   0  0  0  0  0  0  0  0  0  0  0  0
   -1.6873    7.5743   -2.6308 H   0  0  0  0  0  0  0  0  0  0  0  0
   -2.3232    9.5427    0.9829 H   0  0  0  0  0  0  0  0  0  0  0  0
   -2.2939   10.8173   -0.2825 H   0  0  0  0  0  0  0  0  0  0  0  0
   -3.5975    9.5815   -0.2825 H   0  0  0  0  0  0  0  0  0  0  0  0
    1.0430   12.5502   -4.2334 H   0  0  0  0  0  0  0  0  0  0  0  0
   -1.3208   12.2253   -3.8555 H   0  0  0  0  0  0  0  0  0  0  0  0
   -1.0341   10.8977   -2.7101 H   0  0  0  0  0  0  0  0  0  0  0  0
   -1.7814   13.5652   -2.0080 H   0  0  0  0  0  0  0  0  0  0  0  0
   -1.1411   12.3862   -0.8663 H   0  0  0  0  0  0  0  0  0  0  0  0
    0.1082   15.7901   -2.3871 H   0  0  0  0  0  0  0  0  0  0  0  0
    1.1467   14.8175   -3.4836 H   0  0  0  0  0  0  0  0  0  0  0  0
   -0.6333   14.5758   -3.4836 H   0  0  0  0  0  0  0  0  0  0  0  0
    0.6681   13.4824    0.3140 H   0  0  0  0  0  0  0  0  0  0  0  0
   -1.2528   15.1152   -0.2209 H   0  0  0  0  0  0  0  0  0  0  0  0
   -0.1789   15.3576    1.2550 H   0  0  0  0  0  0  0  0  0  0  0  0
   -0.7911   17.5263   -0.1093 H   0  0  0  0  0  0  0  0  0  0  0  0
    2.5211   16.1281   -1.9435 H   0  0  0  0  0  0  0  0  0  0  0  0
    3.5420   17.2183    0.7525 H   0  0  0  0  0  0  0  0  0  0  0  0
    4.5349   16.4339   -0.5549 H   0  0  0  0  0  0  0  0  0  0  0  0
    4.7658   18.8971   -0.5536 H   0  0  0  0  0  0  0  0  0  0  0  0
    4.0295   18.2570   -2.0751 H   0  0  0  0  0  0  0  0  0  0  0  0
    2.8331   20.2271   -1.4099 H   0  0  0  0  0  0  0  0  0  0  0  0
    3.1140   20.4300    0.7530 H   0  0  0  0  0  0  0  0  0  0  0  0
    1.4321   17.5660   -3.1625 H   0  0  0  0  0  0  0  0  0  0  0  0
    0.4114   19.0422   -3.2371 H   0  0  0  0  0  0  0  0  0  0  0  0
    2.2018   19.1873   -3.2371 H   0  0  0  0  0  0  0  0  0  0  0  0
    0.1049   19.7098    0.1806 H   0  0  0  0  0  0  0  0  0  0  0  0
    0.3796   20.6475   -1.3267 H   0  0  0  0  0  0  0  0  0  0  0  0
   -0.7636   19.2619   -1.3267 H   0  0  0  0  0  0  0  0  0  0  0  0
    1.6747   14.8537    1.8539 H   0  0  0  0  0  0  0  0  0  0  0  0
    3.2193   14.0106    1.4936 H   0  0  0  0  0  0  0  0  0  0  0  0
    3.1547   15.8058    1.4936 H   0  0  0  0  0  0  0  0  0  0  0  0
    4.1697   14.4907   -1.1839 H   0  0  0  0  0  0  0  0  0  0  0  0
    3.4196   13.0865   -0.2353 H   0  0  0  0  0  0  0  0  0  0  0  0
    2.7592   13.9713   -3.0589 H   0  0  0  0  0  0  0  0  0  0  0  0
    3.5321   12.4323   -2.5109 H   0  0  0  0  0  0  0  0  0  0  0  0
    1.5016   11.9225    0.0091 H   0  0  0  0  0  0  0  0  0  0  0  0
    0.7277   10.7460   -1.1061 H   0  0  0  0  0  0  0  0  0  0  0  0
    2.5131   10.9428   -1.1061 H   0  0  0  0  0  0  0  0  0  0  0  0
  1  2  1  0
  2  3  1  0
  3  4  1  0
  4  5  1  0
  5  6  1  0
  6  7  1  0
  7  8  1  0
  7  9  1  0
  2 10  1  0
 10 11  1  0
 11 12  1  0
 12 13  1  0
 13 14  1  6
 13 15  1  0
 15 16  1  0
 16 17  1  0
 17 18  2  0
 18 19  1  0
 19 20  1  0
 20 21  1  0
 21 22  1  0
 22 23  1  0
 22 24  1  0
 24 25  1  0
 24 26  1  0
 19 27  1  0
 27 28  1  1
 27 29  1  0
 29 30  1  0
 30 31  1  0
 31 32  1  1
  7  5  1  0
 31 10  1  0
 31 13  1  0
 27 15  1  0
 24 18  1  0
  1 33  1  0
  1 34  1  0
  1 35  1  0
  2 36  1  6
  3 37  1  0
  3 38  1  0
  4 39  1  0
  4 40  1  0
  5 41  1  1
  8 42  1  0
  8 43  1  0
  8 44  1  0
  9 45  1  0
  9 46  1  0
  9 47  1  0
 10 48  1  6
 11 49  1  0
 11 50  1  0
 12 51  1  0
 12 52  1  0
 14 53  1  0
 14 54  1  0
 14 55  1  0
 15 56  1  1
 16 57  1  0
 16 58  1  0
 17 59  1  0
 19 60  1  6
 20 61  1  0
 20 62  1  0
 21 63  1  0
 21 64  1  0
 22 65  1  6
 23 66  1  0
 25 67  1  0
 25 68  1  0
 25 69  1  0
 26 70  1  0
 26 71  1  0
 26 72  1  0
 28 73  1  0
 28 74  1  0
 28 75  1  0
 29 76  1  0
 29 77  1  0
 30 78  1  0
 30 79  1  0
 32 80  1  0
 32 81  1  0
 32 82  1  0
M  END
>  <meeko>  (15) 
{"is_sidechain": [false], "intermolecular_energy": 2.731, "internal_energy": -0.839}

$$$$
EPH_relaxed_0001_pdb2pqr_Repair_282_r2_0001_out
     RDKit          3D

 82 86  0  0  0  0  0  0  0  0999 V2000
    0.9130   14.8910   -2.5860 C   0  0  0  0  0  0  0  0  0  0  0  0
    1.1860   14.2180   -3.9340 C   0  0  2  0  0  0  0  0  0  0  0  0
    0.4920   14.9510   -5.1000 C   0  0  0  0  0  0  0  0  0  0  0  0
    1.0700   14.6060   -6.4750 C   0  0  0  0  0  0  0  0  0  0  0  0
    0.8400   15.7080   -7.4650 C   0  0  2  0  0  0  0  0  0  0  0  0
    0.3950   15.2700   -8.7560 O   0  0  0  0  0  0  0  0  0  0  0  0
    1.6840   15.9020   -8.7110 C   0  0  0  0  0  0  0  0  0  0  0  0
    2.8230   14.9870   -9.0330 C   0  0  0  0  0  0  0  0  0  0  0  0
    1.7140   17.2550   -9.3510 C   0  0  0  0  0  0  0  0  0  0  0  0
    0.7340   12.7630   -3.8900 C   0  0  1  0  0  0  0  0  0  0  0  0
    1.8670   11.7740   -4.2720 C   0  0  0  0  0  0  0  0  0  0  0  0
    1.6620   10.5040   -3.4060 C   0  0  0  0  0  0  0  0  0  0  0  0
    0.2450   10.6660   -2.8060 C   0  0  1  0  0  0  0  0  0  0  0  0
   -0.7250   10.2040   -3.9380 C   0  0  0  0  0  0  0  0  0  0  0  0
   -0.0280    9.9080   -1.4660 C   0  0  2  0  0  0  0  0  0  0  0  0
    0.0750    8.3750   -1.5510 C   0  0  0  0  0  0  0  0  0  0  0  0
   -1.1960    7.6670   -1.8840 C   0  0  0  0  0  0  0  0  0  0  0  0
   -2.4290    8.2050   -1.8280 C   0  0  0  0  0  0  0  0  0  0  0  0
   -2.6430    9.6300   -1.3010 C   0  0  1  0  0  0  0  0  0  0  0  0
   -3.8280    9.6390   -0.3000 C   0  0  0  0  0  0  0  0  0  0  0  0
   -5.0990    9.0390   -0.8930 C   0  0  0  0  0  0  0  0  0  0  0  0
   -4.8620    7.6030   -1.3530 C   0  0  2  0  0  0  0  0  0  0  0  0
   -4.6110    6.7870   -0.2040 O   0  0  0  0  0  0  0  0  0  0  0  0
   -3.6840    7.4680   -2.3570 C   0  0  0  0  0  0  0  0  0  0  0  0
   -4.0820    8.0990   -3.7140 C   0  0  0  0  0  0  0  0  0  0  0  0
   -3.4600    5.9560   -2.6300 C   0  0  0  0  0  0  0  0  0  0  0  0
   -1.3530   10.3570   -0.7260 C   0  0  1  0  0  0  0  0  0  0  0  0
   -1.1650    9.9970    0.7800 C   0  0  0  0  0  0  0  0  0  0  0  0
   -1.5710   11.9160   -0.7850 C   0  0  0  0  0  0  0  0  0  0  0  0
   -1.1700   12.6240   -2.0930 C   0  0  0  0  0  0  0  0  0  0  0  0
    0.2390   12.2130   -2.5290 C   0  0  2  0  0  0  0  0  0  0  0  0
    1.2400   12.6850   -1.4200 C   0  0  0  0  0  0  0  0  0  0  0  0
    1.1908   14.2061   -1.7713 H   0  0  0  0  0  0  0  0  0  0  0  0
    1.5083   15.8128   -2.5092 H   0  0  0  0  0  0  0  0  0  0  0  0
   -0.1562   15.1376   -2.5092 H   0  0  0  0  0  0  0  0  0  0  0  0
    2.2702   14.2646   -4.1136 H   0  0  0  0  0  0  0  0  0  0  0  0
   -0.5744   14.6814   -5.0940 H   0  0  0  0  0  0  0  0  0  0  0  0
    0.6536   16.0279   -4.9444 H   0  0  0  0  0  0  0  0  0  0  0  0
    2.1523   14.4370   -6.3746 H   0  0  0  0  0  0  0  0  0  0  0  0
    0.5626   13.7023   -6.8435 H   0  0  0  0  0  0  0  0  0  0  0  0
    0.5382   16.3978   -6.6631 H   0  0  0  0  0  0  0  0  0  0  0  0
    3.2762   14.6230   -8.0991 H   0  0  0  0  0  0  0  0  0  0  0  0
    2.4527   14.1324   -9.6183 H   0  0  0  0  0  0  0  0  0  0  0  0
    3.5776   15.5328   -9.6183 H   0  0  0  0  0  0  0  0  0  0  0  0
    1.7312   18.0296   -8.5702 H   0  0  0  0  0  0  0  0  0  0  0  0
    2.6144   17.3448   -9.9765 H   0  0  0  0  0  0  0  0  0  0  0  0
    0.8185   17.3847   -9.9765 H   0  0  0  0  0  0  0  0  0  0  0  0
   -0.1020   12.8077   -4.6035 H   0  0  0  0  0  0  0  0  0  0  0  0
    1.8030   11.5187   -5.3401 H   0  0  0  0  0  0  0  0  0  0  0  0
    2.8570   12.2189   -4.0931 H   0  0  0  0  0  0  0  0  0  0  0  0
    1.7199    9.5974   -4.0263 H   0  0  0  0  0  0  0  0  0  0  0  0
    2.4344   10.3989   -2.6299 H   0  0  0  0  0  0  0  0  0  0  0  0
   -1.6320    9.7720   -3.4900 H   0  0  0  0  0  0  0  0  0  0  0  0
   -0.9995   11.0681   -4.5609 H   0  0  0  0  0  0  0  0  0  0  0  0
   -0.2271    9.4463   -4.5609 H   0  0  0  0  0  0  0  0  0  0  0  0
    0.8148   10.2302   -0.8368 H   0  0  0  0  0  0  0  0  0  0  0  0
    0.8152    8.1267   -2.3259 H   0  0  0  0  0  0  0  0  0  0  0  0
    0.3584    8.0333   -0.5446 H   0  0  0  0  0  0  0  0  0  0  0  0
   -1.1189    6.6168   -2.2021 H   0  0  0  0  0  0  0  0  0  0  0  0
   -2.8911   10.2451   -2.1786 H   0  0  0  0  0  0  0  0  0  0  0  0
   -3.5438    9.0556    0.5882 H   0  0  0  0  0  0  0  0  0  0  0  0
   -4.0413   10.6874   -0.0444 H   0  0  0  0  0  0  0  0  0  0  0  0
   -5.8907    9.0462   -0.1293 H   0  0  0  0  0  0  0  0  0  0  0  0
   -5.3983    9.6413   -1.7634 H   0  0  0  0  0  0  0  0  0  0  0  0
   -5.7665    7.2731   -1.8851 H   0  0  0  0  0  0  0  0  0  0  0  0
   -5.1330    5.9730   -0.3010 H   0  0  0  0  0  0  0  0  0  0  0  0
   -4.6611    9.0171   -3.5357 H   0  0  0  0  0  0  0  0  0  0  0  0
   -3.1742    8.3432   -4.2851 H   0  0  0  0  0  0  0  0  0  0  0  0
   -4.6935    7.3849   -4.2851 H   0  0  0  0  0  0  0  0  0  0  0  0
   -3.3804    5.4186   -1.6735 H   0  0  0  0  0  0  0  0  0  0  0  0
   -4.3089    5.5575   -3.2049 H   0  0  0  0  0  0  0  0  0  0  0  0
   -2.5320    5.8208   -3.2049 H   0  0  0  0  0  0  0  0  0  0  0  0
   -1.5843   10.8000    1.4040 H   0  0  0  0  0  0  0  0  0  0  0  0
   -1.6852    9.0528    0.9990 H   0  0  0  0  0  0  0  0  0  0  0  0
   -0.0929    9.8843    0.9990 H   0  0  0  0  0  0  0  0  0  0  0  0
   -2.6407   12.1091   -0.6164 H   0  0  0  0  0  0  0  0  0  0  0  0
   -0.9014   12.3297   -0.0166 H   0  0  0  0  0  0  0  0  0  0  0  0
   -1.8850   12.3517   -2.8833 H   0  0  0  0  0  0  0  0  0  0  0  0
   -1.1811   13.7105   -1.9213 H   0  0  0  0  0  0  0  0  0  0  0  0
    0.8103   12.4824   -0.4279 H   0  0  0  0  0  0  0  0  0  0  0  0
    2.1893   12.1396   -1.5267 H   0  0  0  0  0  0  0  0  0  0  0  0
    1.4232   13.7644   -1.5267 H   0  0  0  0  0  0  0  0  0  0  0  0
  1  2  1  0
  2  3  1  0
  3  4  1  0
  4  5  1  0
  5  6  1  0
  6  7  1  0
  7  8  1  0
  7  9  1  0
  2 10  1  0
 10 11  1  0
 11 12  1  0
 12 13  1  0
 13 14  1  6
 13 15  1  0
 15 16  1  0
 16 17  1  0
 17 18  2  0
 18 19  1  0
 19 20  1  0
 20 21  1  0
 21 22  1  0
 22 23  1  0
 22 24  1  0
 24 25  1  0
 24 26  1  0
 19 27  1  0
 27 28  1  1
 27 29  1  0
 29 30  1  0
 30 31  1  0
 31 32  1  1
  7  5  1  0
 31 10  1  0
 31 13  1  0
 27 15  1  0
 24 18  1  0
  1 33  1  0
  1 34  1  0
  1 35  1  0
  2 36  1  6
  3 37  1  0
  3 38  1  0
  4 39  1  0
  4 40  1  0
  5 41  1  1
  8 42  1  0
  8 43  1  0
  8 44  1  0
  9 45  1  0
  9 46  1  0
  9 47  1  0
 10 48  1  6
 11 49  1  0
 11 50  1  0
 12 51  1  0
 12 52  1  0
 14 53  1  0
 14 54  1  0
 14 55  1  0
 15 56  1  1
 16 57  1  0
 16 58  1  0
 17 59  1  0
 19 60  1  6
 20 61  1  0
 20 62  1  0
 21 63  1  0
 21 64  1  0
 22 65  1  6
 23 66  1  0
 25 67  1  0
 25 68  1  0
 25 69  1  0
 26 70  1  0
 26 71  1  0
 26 72  1  0
 28 73  1  0
 28 74  1  0
 28 75  1  0
 29 76  1  0
 29 77  1  0
 30 78  1  0
 30 79  1  0
 32 80  1  0
 32 81  1  0
 32 82  1  0
M  END
>  <meeko>  (16) 
{"is_sidechain": [false], "intermolecular_energy": 2.731, "internal_energy": -0.839}

$$$$
EPH_relaxed_0001_pdb2pqr_Repair_282_r2_0001_out
     RDKit          3D

 82 86  0  0  0  0  0  0  0  0999 V2000
    3.1180   14.8420   -7.5440 C   0  0  0  0  0  0  0  0  0  0  0  0
    1.5940   14.8850   -7.4010 C   0  0  2  0  0  0  0  0  0  0  0  0
    0.9830   16.1310   -8.0730 C   0  0  0  0  0  0  0  0  0  0  0  0
    1.9120   16.8010   -9.0880 C   0  0  0  0  0  0  0  0  0  0  0  0
    1.5870   16.3910  -10.4920 C   0  0  2  0  0  0  0  0  0  0  0  0
    1.0080   15.0850  -10.6160 O   0  0  0  0  0  0  0  0  0  0  0  0
    2.2980   15.2660  -11.2210 C   0  0  0  0  0  0  0  0  0  0  0  0
    3.3920   14.4810  -10.5670 C   0  0  0  0  0  0  0  0  0  0  0  0
    2.2700   15.2520  -12.7170 C   0  0  0  0  0  0  0  0  0  0  0  0
    1.2100   14.8460   -5.9260 C   0  0  1  0  0  0  0  0  0  0  0  0
   -0.0460   15.7030   -5.6140 C   0  0  0  0  0  0  0  0  0  0  0  0
   -0.8250   14.9640   -4.4950 C   0  0  0  0  0  0  0  0  0  0  0  0
    0.1650   13.8970   -3.9720 C   0  0  1  0  0  0  0  0  0  0  0  0
    1.1010   14.6650   -2.9870 C   0  0  0  0  0  0  0  0  0  0  0  0
   -0.4710   12.6370   -3.2980 C   0  0  2  0  0  0  0  0  0  0  0  0
   -1.2890   12.9200   -2.0260 C   0  0  0  0  0  0  0  0  0  0  0  0
   -0.5190   12.8670   -0.7480 C   0  0  0  0  0  0  0  0  0  0  0  0
    0.7040   12.3280   -0.5940 C   0  0  0  0  0  0  0  0  0  0  0  0
    1.4000   11.6070   -1.7560 C   0  0  1  0  0  0  0  0  0  0  0  0
    1.9880   10.2620   -1.2530 C   0  0  0  0  0  0  0  0  0  0  0  0
    2.9030   10.4400   -0.0450 C   0  0  0  0  0  0  0  0  0  0  0  0
    2.1600   11.1070    1.1090 C   0  0  2  0  0  0  0  0  0  0  0  0
    1.1480   10.2140    1.5840 O   0  0  0  0  0  0  0  0  0  0  0  0
    1.5150   12.4670    0.7180 C   0  0  0  0  0  0  0  0  0  0  0  0
    2.6250   13.5240    0.4950 C   0  0  0  0  0  0  0  0  0  0  0  0
    0.6790   12.9640    1.9280 C   0  0  0  0  0  0  0  0  0  0  0  0
    0.5390   11.4380   -3.0810 C   0  0  1  0  0  0  0  0  0  0  0  0
   -0.3210   10.1410   -2.9960 C   0  0  0  0  0  0  0  0  0  0  0  0
    1.5120   11.2470   -4.3050 C   0  0  0  0  0  0  0  0  0  0  0  0
    2.0110   12.5270   -5.0020 C   0  0  0  0  0  0  0  0  0  0  0  0
    0.8450   13.4670   -5.3220 C   0  0  2  0  0  0  0  0  0  0  0  0
   -0.1030   12.7290   -6.3280 C   0  0  0  0  0  0  0  0  0  0  0  0
    3.5797   14.8290   -6.5457 H   0  0  0  0  0  0  0  0  0  0  0  0
    3.4092   13.9353   -8.0945 H   0  0  0  0  0  0  0  0  0  0  0  0
    3.4598   15.7309   -8.0945 H   0  0  0  0  0  0  0  0  0  0  0  0
    1.1874   14.0012   -7.9144 H   0  0  0  0  0  0  0  0  0  0  0  0
    0.0616   15.8287   -8.5923 H   0  0  0  0  0  0  0  0  0  0  0  0
    0.7943   16.8657   -7.2764 H   0  0  0  0  0  0  0  0  0  0  0  0
    1.8061   17.8925   -9.0019 H   0  0  0  0  0  0  0  0  0  0  0  0
    2.9430   16.4863   -8.8689 H   0  0  0  0  0  0  0  0  0  0  0  0
    1.3740   17.4333  -10.7719 H   0  0  0  0  0  0  0  0  0  0  0  0
    3.2918   14.5529   -9.4739 H   0  0  0  0  0  0  0  0  0  0  0  0
    3.3204   13.4269  -10.8732 H   0  0  0  0  0  0  0  0  0  0  0  0
    4.3677   14.8864  -10.8732 H   0  0  0  0  0  0  0  0  0  0  0  0
    1.3357   14.7849  -13.0619 H   0  0  0  0  0  0  0  0  0  0  0  0
    2.3252   16.2837  -13.0944 H   0  0  0  0  0  0  0  0  0  0  0  0
    3.1285   14.6771  -13.0944 H   0  0  0  0  0  0  0  0  0  0  0  0
    2.1461   15.2149   -5.4815 H   0  0  0  0  0  0  0  0  0  0  0  0
    0.2542   16.7035   -5.2693 H   0  0  0  0  0  0  0  0  0  0  0  0
   -0.6696   15.8311   -6.5110 H   0  0  0  0  0  0  0  0  0  0  0  0
   -1.1055   15.6609   -3.6915 H   0  0  0  0  0  0  0  0  0  0  0  0
   -1.7623   14.5202   -4.8616 H   0  0  0  0  0  0  0  0  0  0  0  0
    0.8149   14.4303   -1.9511 H   0  0  0  0  0  0  0  0  0  0  0  0
    2.1436   14.3587   -3.1578 H   0  0  0  0  0  0  0  0  0  0  0  0
    1.0042   15.7473   -3.1578 H   0  0  0  0  0  0  0  0  0  0  0  0
   -1.1990   12.3079   -4.0541 H   0  0  0  0  0  0  0  0  0  0  0  0
   -1.7248   13.9257   -2.1188 H   0  0  0  0  0  0  0  0  0  0  0  0
   -2.0400   12.1187   -1.9624 H   0  0  0  0  0  0  0  0  0  0  0  0
   -0.9916   13.3058    0.1431 H   0  0  0  0  0  0  0  0  0  0  0  0
    2.2136   12.2712   -2.0829 H   0  0  0  0  0  0  0  0  0  0  0  0
    1.1579    9.5972   -0.9719 H   0  0  0  0  0  0  0  0  0  0  0  0
    2.5900    9.8345   -2.0684 H   0  0  0  0  0  0  0  0  0  0  0  0
    3.2639    9.4535    0.2816 H   0  0  0  0  0  0  0  0  0  0  0  0
    3.7476   11.0818   -0.3361 H   0  0  0  0  0  0  0  0  0  0  0  0
    2.8986   11.3241    1.8947 H   0  0  0  0  0  0  0  0  0  0  0  0
    1.4440    9.8630    2.4410 H   0  0  0  0  0  0  0  0  0  0  0  0
    2.9959   13.8772    1.4685 H   0  0  0  0  0  0  0  0  0  0  0  0
    3.4531   13.0723   -0.0709 H   0  0  0  0  0  0  0  0  0  0  0  0
    2.2143   14.3732   -0.0709 H   0  0  0  0  0  0  0  0  0  0  0  0
    1.1764   12.6683    2.8635 H   0  0  0  0  0  0  0  0  0  0  0  0
    0.5931   14.0599    1.8889 H   0  0  0  0  0  0  0  0  0  0  0  0
   -0.3248   12.5159    1.8889 H   0  0  0  0  0  0  0  0  0  0  0  0
   -0.4921    9.8830   -1.9405 H   0  0  0  0  0  0  0  0  0  0  0  0
   -1.2875   10.3086   -3.4938 H   0  0  0  0  0  0  0  0  0  0  0  0
    0.2096    9.3160   -3.4938 H   0  0  0  0  0  0  0  0  0  0  0  0
    2.3949   10.6979   -3.9458 H   0  0  0  0  0  0  0  0  0  0  0  0
    0.9181   10.7183   -5.0651 H   0  0  0  0  0  0  0  0  0  0  0  0
    2.7193   13.0451   -4.3388 H   0  0  0  0  0  0  0  0  0  0  0  0
    2.5025   12.2443   -5.9446 H   0  0  0  0  0  0  0  0  0  0  0  0
   -0.8502   12.1473   -5.7683 H   0  0  0  0  0  0  0  0  0  0  0  0
   -0.6139   13.4695   -6.9610 H   0  0  0  0  0  0  0  0  0  0  0  0
    0.4896   12.0521   -6.9610 H   0  0  0  0  0  0  0  0  0  0  0  0
  1  2  1  0
  2  3  1  0
  3  4  1  0
  4  5  1  0
  5  6  1  0
  6  7  1  0
  7  8  1  0
  7  9  1  0
  2 10  1  0
 10 11  1  0
 11 12  1  0
 12 13  1  0
 13 14  1  1
 13 15  1  0
 15 16  1  0
 16 17  1  0
 17 18  2  0
 18 19  1  0
 19 20  1  0
 20 21  1  0
 21 22  1  0
 22 23  1  0
 22 24  1  0
 24 25  1  0
 24 26  1  0
 19 27  1  0
 27 28  1  1
 27 29  1  0
 29 30  1  0
 30 31  1  0
 31 32  1  6
  7  5  1  0
 31 10  1  0
 31 13  1  0
 27 15  1  0
 24 18  1  0
  1 33  1  0
  1 34  1  0
  1 35  1  0
  2 36  1  6
  3 37  1  0
  3 38  1  0
  4 39  1  0
  4 40  1  0
  5 41  1  6
  8 42  1  0
  8 43  1  0
  8 44  1  0
  9 45  1  0
  9 46  1  0
  9 47  1  0
 10 48  1  1
 11 49  1  0
 11 50  1  0
 12 51  1  0
 12 52  1  0
 14 53  1  0
 14 54  1  0
 14 55  1  0
 15 56  1  6
 16 57  1  0
 16 58  1  0
 17 59  1  0
 19 60  1  6
 20 61  1  0
 20 62  1  0
 21 63  1  0
 21 64  1  0
 22 65  1  1
 23 66  1  0
 25 67  1  0
 25 68  1  0
 25 69  1  0
 26 70  1  0
 26 71  1  0
 26 72  1  0
 28 73  1  0
 28 74  1  0
 28 75  1  0
 29 76  1  0
 29 77  1  0
 30 78  1  0
 30 79  1  0
 32 80  1  0
 32 81  1  0
 32 82  1  0
M  END
>  <meeko>  (17) 
{"is_sidechain": [false], "intermolecular_energy": 2.731, "internal_energy": -0.839}

$$$$
EPH_relaxed_0001_pdb2pqr_Repair_282_r2_0001_out
     RDKit          3D

 82 86  0  0  0  0  0  0  0  0999 V2000
   -2.4590    7.6930   -0.1280 C   0  0  0  0  0  0  0  0  0  0  0  0
   -3.0180    9.1150   -0.0270 C   0  0  2  0  0  0  0  0  0  0  0  0
   -4.5290    9.1670   -0.3310 C   0  0  0  0  0  0  0  0  0  0  0  0
   -5.0390    7.9660   -1.1310 C   0  0  0  0  0  0  0  0  0  0  0  0
   -6.5350    7.9500   -1.2160 C   0  0  2  0  0  0  0  0  0  0  0  0
   -7.1370    6.6770   -0.9480 O   0  0  0  0  0  0  0  0  0  0  0  0
   -7.3040    7.1900   -2.2800 C   0  0  0  0  0  0  0  0  0  0  0  0
   -6.6000    6.3920   -3.3330 C   0  0  0  0  0  0  0  0  0  0  0  0
   -8.7060    7.6150   -2.5910 C   0  0  0  0  0  0  0  0  0  0  0  0
   -2.2640   10.0380   -0.9770 C   0  0  1  0  0  0  0  0  0  0  0  0
   -2.9170   11.4410   -1.0900 C   0  0  0  0  0  0  0  0  0  0  0  0
   -1.7610   12.4600   -1.2640 C   0  0  0  0  0  0  0  0  0  0  0  0
   -0.5200   11.5910   -1.5780 C   0  0  1  0  0  0  0  0  0  0  0  0
   -0.6320   11.2670   -3.1000 C   0  0  0  0  0  0  0  0  0  0  0  0
    0.8680   12.2160   -1.2210 C   0  0  2  0  0  0  0  0  0  0  0  0
    1.2190   13.5050   -1.9840 C   0  0  0  0  0  0  0  0  0  0  0  0
    1.9530   13.3070   -3.2690 C   0  0  0  0  0  0  0  0  0  0  0  0
    2.5660   12.1710   -3.6520 C   0  0  0  0  0  0  0  0  0  0  0  0
    2.6420   10.9610   -2.7110 C   0  0  1  0  0  0  0  0  0  0  0  0
    4.0870   10.3990   -2.7060 C   0  0  0  0  0  0  0  0  0  0  0  0
    4.5970   10.0810   -4.1090 C   0  0  0  0  0  0  0  0  0  0  0  0
    4.5610   11.3220   -4.9970 C   0  0  2  0  0  0  0  0  0  0  0  0
    5.5110   12.2700   -4.5020 O   0  0  0  0  0  0  0  0  0  0  0  0
    3.1550   11.9810   -5.0710 C   0  0  0  0  0  0  0  0  0  0  0  0
    2.1960   11.0720   -5.8780 C   0  0  0  0  0  0  0  0  0  0  0  0
    3.2880   13.2990   -5.8810 C   0  0  0  0  0  0  0  0  0  0  0  0
    2.0680   11.1850   -1.2460 C   0  0  1  0  0  0  0  0  0  0  0  0
    3.1800   11.7730   -0.3240 C   0  0  0  0  0  0  0  0  0  0  0  0
    1.6720    9.7910   -0.6300 C   0  0  0  0  0  0  0  0  0  0  0  0
    0.2470    9.2830   -0.9190 C   0  0  0  0  0  0  0  0  0  0  0  0
   -0.7920   10.3700   -0.6260 C   0  0  2  0  0  0  0  0  0  0  0  0
   -0.7180   10.7020    0.9040 C   0  0  0  0  0  0  0  0  0  0  0  0
   -2.3001    7.2888    0.8826 H   0  0  0  0  0  0  0  0  0  0  0  0
   -3.1735    7.0557   -0.6696 H   0  0  0  0  0  0  0  0  0  0  0  0
   -1.5018    7.7129   -0.6696 H   0  0  0  0  0  0  0  0  0  0  0  0
   -2.8776    9.4535    1.0101 H   0  0  0  0  0  0  0  0  0  0  0  0
   -5.0739    9.2046    0.6238 H   0  0  0  0  0  0  0  0  0  0  0  0
   -4.7013   10.0605   -0.9490 H   0  0  0  0  0  0  0  0  0  0  0  0
   -4.6248    8.0142   -2.1489 H   0  0  0  0  0  0  0  0  0  0  0  0
   -4.7155    7.0494   -0.6161 H   0  0  0  0  0  0  0  0  0  0  0  0
   -6.5890    8.9927   -0.8698 H   0  0  0  0  0  0  0  0  0  0  0  0
   -5.9450    5.6495   -2.8537 H   0  0  0  0  0  0  0  0  0  0  0  0
   -7.3424    5.8759   -3.9595 H   0  0  0  0  0  0  0  0  0  0  0  0
   -5.9954    7.0642   -3.9595 H   0  0  0  0  0  0  0  0  0  0  0  0
   -9.2553    7.7815   -1.6527 H   0  0  0  0  0  0  0  0  0  0  0  0
   -8.6856    8.5473   -3.1744 H   0  0  0  0  0  0  0  0  0  0  0  0
   -9.2068    6.8283   -3.1744 H   0  0  0  0  0  0  0  0  0  0  0  0
   -2.3048    9.4324   -1.8944 H   0  0  0  0  0  0  0  0  0  0  0  0
   -3.5882   11.4774   -1.9607 H   0  0  0  0  0  0  0  0  0  0  0  0
   -3.5152   11.6713   -0.1961 H   0  0  0  0  0  0  0  0  0  0  0  0
   -1.9726   13.1495   -2.0945 H   0  0  0  0  0  0  0  0  0  0  0  0
   -1.6176   13.0853   -0.3705 H   0  0  0  0  0  0  0  0  0  0  0  0
   -0.9889   10.2346   -3.2298 H   0  0  0  0  0  0  0  0  0  0  0  0
   -1.3419   11.9624   -3.5716 H   0  0  0  0  0  0  0  0  0  0  0  0
    0.3558   11.3755   -3.5716 H   0  0  0  0  0  0  0  0  0  0  0  0
    0.7280   12.5184   -0.1727 H   0  0  0  0  0  0  0  0  0  0  0  0
    0.2807   14.0340   -2.2068 H   0  0  0  0  0  0  0  0  0  0  0  0
    1.8992   14.0698   -1.3295 H   0  0  0  0  0  0  0  0  0  0  0  0
    1.9966   14.1610   -3.9610 H   0  0  0  0  0  0  0  0  0  0  0  0
    1.9519   10.2105   -3.1239 H   0  0  0  0  0  0  0  0  0  0  0  0
    4.7538   11.1452   -2.2493 H   0  0  0  0  0  0  0  0  0  0  0  0
    4.0776    9.4597   -2.1337 H   0  0  0  0  0  0  0  0  0  0  0  0
    5.6327    9.7166   -4.0415 H   0  0  0  0  0  0  0  0  0  0  0  0
    3.9470    9.3127   -4.5530 H   0  0  0  0  0  0  0  0  0  0  0  0
    4.8128   11.0041   -6.0195 H   0  0  0  0  0  0  0  0  0  0  0  0
    5.2440   12.5110   -3.5990 H   0  0  0  0  0  0  0  0  0  0  0  0
    1.5766   10.4849   -5.1840 H   0  0  0  0  0  0  0  0  0  0  0  0
    1.5472   11.6945   -6.5117 H   0  0  0  0  0  0  0  0  0  0  0  0
    2.7829   10.3908   -6.5117 H   0  0  0  0  0  0  0  0  0  0  0  0
    3.3737   14.1485   -5.1875 H   0  0  0  0  0  0  0  0  0  0  0  0
    4.1859   13.2509   -6.5147 H   0  0  0  0  0  0  0  0  0  0  0  0
    2.3986   13.4313   -6.5147 H   0  0  0  0  0  0  0  0  0  0  0  0
    2.8994   11.6246    0.7292 H   0  0  0  0  0  0  0  0  0  0  0  0
    4.1323   11.2606   -0.5255 H   0  0  0  0  0  0  0  0  0  0  0  0
    3.2926   12.8485   -0.5255 H   0  0  0  0  0  0  0  0  0  0  0  0
    2.3775    9.0425   -1.0200 H   0  0  0  0  0  0  0  0  0  0  0  0
    1.7098    9.9369    0.4596 H   0  0  0  0  0  0  0  0  0  0  0  0
    0.1760    8.9932   -1.9778 H   0  0  0  0  0  0  0  0  0  0  0  0
    0.0439    8.4190   -0.2692 H   0  0  0  0  0  0  0  0  0  0  0  0
   -0.9209    9.7915    1.4870 H   0  0  0  0  0  0  0  0  0  0  0  0
    0.2861   11.0783    1.1494 H   0  0  0  0  0  0  0  0  0  0  0  0
   -1.4672   11.4691    1.1494 H   0  0  0  0  0  0  0  0  0  0  0  0
  1  2  1  0
  2  3  1  0
  3  4  1  0
  4  5  1  0
  5  6  1  0
  6  7  1  0
  7  8  1  0
  7  9  1  0
  2 10  1  0
 10 11  1  0
 11 12  1  0
 12 13  1  0
 13 14  1  6
 13 15  1  0
 15 16  1  0
 16 17  1  0
 17 18  2  0
 18 19  1  0
 19 20  1  0
 20 21  1  0
 21 22  1  0
 22 23  1  0
 22 24  1  0
 24 25  1  0
 24 26  1  0
 19 27  1  0
 27 28  1  1
 27 29  1  0
 29 30  1  0
 30 31  1  0
 31 32  1  1
  7  5  1  0
 31 10  1  0
 31 13  1  0
 27 15  1  0
 24 18  1  0
  1 33  1  0
  1 34  1  0
  1 35  1  0
  2 36  1  1
  3 37  1  0
  3 38  1  0
  4 39  1  0
  4 40  1  0
  5 41  1  1
  8 42  1  0
  8 43  1  0
  8 44  1  0
  9 45  1  0
  9 46  1  0
  9 47  1  0
 10 48  1  6
 11 49  1  0
 11 50  1  0
 12 51  1  0
 12 52  1  0
 14 53  1  0
 14 54  1  0
 14 55  1  0
 15 56  1  1
 16 57  1  0
 16 58  1  0
 17 59  1  0
 19 60  1  6
 20 61  1  0
 20 62  1  0
 21 63  1  0
 21 64  1  0
 22 65  1  6
 23 66  1  0
 25 67  1  0
 25 68  1  0
 25 69  1  0
 26 70  1  0
 26 71  1  0
 26 72  1  0
 28 73  1  0
 28 74  1  0
 28 75  1  0
 29 76  1  0
 29 77  1  0
 30 78  1  0
 30 79  1  0
 32 80  1  0
 32 81  1  0
 32 82  1  0
M  END
>  <meeko>  (18) 
{"is_sidechain": [false], "intermolecular_energy": 2.731, "internal_energy": -0.839}

$$$$
EPH_relaxed_0001_pdb2pqr_Repair_282_r2_0001_out
     RDKit          3D

 82 86  0  0  0  0  0  0  0  0999 V2000
    3.5170   18.4920   -2.0000 C   0  0  0  0  0  0  0  0  0  0  0  0
    2.4090   17.5760   -2.5270 C   0  0  2  0  0  0  0  0  0  0  0  0
    1.0100   18.1990   -2.3550 C   0  0  0  0  0  0  0  0  0  0  0  0
    0.9940   19.4400   -1.4580 C   0  0  0  0  0  0  0  0  0  0  0  0
   -0.1500   19.4110   -0.4910 C   0  0  2  0  0  0  0  0  0  0  0  0
   -1.1390   18.4090   -0.7630 O   0  0  0  0  0  0  0  0  0  0  0  0
   -1.5740   19.7750   -0.8680 C   0  0  0  0  0  0  0  0  0  0  0  0
   -1.9290   20.1950   -2.2600 C   0  0  0  0  0  0  0  0  0  0  0  0
   -2.5180   20.1920    0.2170 C   0  0  0  0  0  0  0  0  0  0  0  0
    2.4700   16.2280   -1.8190 C   0  0  1  0  0  0  0  0  0  0  0  0
    2.9190   16.3490   -0.3390 C   0  0  0  0  0  0  0  0  0  0  0  0
    2.1460   15.2640    0.4540 C   0  0  0  0  0  0  0  0  0  0  0  0
    1.5380   14.3460   -0.6330 C   0  0  1  0  0  0  0  0  0  0  0  0
    2.7010   13.3930   -1.0490 C   0  0  0  0  0  0  0  0  0  0  0  0
    0.2560   13.5490   -0.2260 C   0  0  2  0  0  0  0  0  0  0  0  0
    0.4490   12.5450    0.9240 C   0  0  0  0  0  0  0  0  0  0  0  0
    0.8340   11.1640    0.5070 C   0  0  0  0  0  0  0  0  0  0  0  0
    0.7420   10.6700   -0.7420 C   0  0  0  0  0  0  0  0  0  0  0  0
    0.1150   11.4970   -1.8720 C   0  0  1  0  0  0  0  0  0  0  0  0
   -0.8830   10.6150   -2.6670 C   0  0  0  0  0  0  0  0  0  0  0  0
   -0.2470    9.3230   -3.1730 C   0  0  0  0  0  0  0  0  0  0  0  0
    0.3130    8.5010   -2.0150 C   0  0  2  0  0  0  0  0  0  0  0  0
   -0.7740    8.0440   -1.2060 O   0  0  0  0  0  0  0  0  0  0  0  0
    1.3240    9.2900   -1.1360 C   0  0  0  0  0  0  0  0  0  0  0  0
    2.6330    9.5240   -1.9300 C   0  0  0  0  0  0  0  0  0  0  0  0
    1.7030    8.3950    0.0750 C   0  0  0  0  0  0  0  0  0  0  0  0
   -0.5130   12.8930   -1.4430 C   0  0  1  0  0  0  0  0  0  0  0  0
   -1.9890   12.6930   -0.9820 C   0  0  0  0  0  0  0  0  0  0  0  0
   -0.5640   13.8410   -2.6990 C   0  0  0  0  0  0  0  0  0  0  0  0
    0.6890   14.6910   -2.9800 C   0  0  0  0  0  0  0  0  0  0  0  0
    1.1520   15.4200   -1.7140 C   0  0  2  0  0  0  0  0  0  0  0  0
    0.0100   16.4030   -1.2840 C   0  0  0  0  0  0  0  0  0  0  0  0
    3.5072   18.4839   -0.9001 H   0  0  0  0  0  0  0  0  0  0  0  0
    4.4922   18.1329   -2.3607 H   0  0  0  0  0  0  0  0  0  0  0  0
    3.3476   19.5173   -2.3607 H   0  0  0  0  0  0  0  0  0  0  0  0
    2.5778   17.4379   -3.6052 H   0  0  0  0  0  0  0  0  0  0  0  0
    0.6323   18.4836   -3.3481 H   0  0  0  0  0  0  0  0  0  0  0  0
    0.3791   17.4417   -1.8667 H   0  0  0  0  0  0  0  0  0  0  0  0
    1.9369   19.4837   -0.8932 H   0  0  0  0  0  0  0  0  0  0  0  0
    0.8773   20.3254   -2.1002 H   0  0  0  0  0  0  0  0  0  0  0  0
    0.5040   19.7435    0.3286 H   0  0  0  0  0  0  0  0  0  0  0  0
   -2.6386   21.0345   -2.2200 H   0  0  0  0  0  0  0  0  0  0  0  0
   -1.0187   20.5093   -2.7916 H   0  0  0  0  0  0  0  0  0  0  0  0
   -2.3906   19.3498   -2.7916 H   0  0  0  0  0  0  0  0  0  0  0  0
   -2.0618   19.9905    1.1974 H   0  0  0  0  0  0  0  0  0  0  0  0
   -2.7299   21.2675    0.1253 H   0  0  0  0  0  0  0  0  0  0  0  0
   -3.4558   19.6244    0.1253 H   0  0  0  0  0  0  0  0  0  0  0  0
    3.1804   15.7067   -2.4774 H   0  0  0  0  0  0  0  0  0  0  0  0
    4.0025   16.1781   -0.2569 H   0  0  0  0  0  0  0  0  0  0  0  0
    2.7070   17.3532    0.0568 H   0  0  0  0  0  0  0  0  0  0  0  0
    2.8291   14.6971    1.1036 H   0  0  0  0  0  0  0  0  0  0  0  0
    1.3783   15.6960    1.1128 H   0  0  0  0  0  0  0  0  0  0  0  0
    3.1882   12.9937   -0.1472 H   0  0  0  0  0  0  0  0  0  0  0  0
    2.2981   12.5620   -1.6465 H   0  0  0  0  0  0  0  0  0  0  0  0
    3.4367   13.9514   -1.6465 H   0  0  0  0  0  0  0  0  0  0  0  0
   -0.3956   14.3397    0.1744 H   0  0  0  0  0  0  0  0  0  0  0  0
    1.2381   12.9329    1.5850 H   0  0  0  0  0  0  0  0  0  0  0  0
   -0.5310   12.4526    1.4150 H   0  0  0  0  0  0  0  0  0  0  0  0
    1.2259   10.4936    1.2861 H   0  0  0  0  0  0  0  0  0  0  0  0
    0.9471   11.8002   -2.5245 H   0  0  0  0  0  0  0  0  0  0  0  0
   -1.7277   10.3588   -2.0106 H   0  0  0  0  0  0  0  0  0  0  0  0
   -1.2126   11.1910   -3.5442 H   0  0  0  0  0  0  0  0  0  0  0  0
   -1.0082    8.7296   -3.7007 H   0  0  0  0  0  0  0  0  0  0  0  0
    0.5788    9.5807   -3.8524 H   0  0  0  0  0  0  0  0  0  0  0  0
    0.8677    7.6558   -2.4485 H   0  0  0  0  0  0  0  0  0  0  0  0
   -0.4240    7.3760   -0.5920 H   0  0  0  0  0  0  0  0  0  0  0  0
    3.4663    9.6730   -1.2275 H   0  0  0  0  0  0  0  0  0  0  0  0
    2.8393    8.6485   -2.5632 H   0  0  0  0  0  0  0  0  0  0  0  0
    2.5232   10.4167   -2.5632 H   0  0  0  0  0  0  0  0  0  0  0  0
    1.4771    8.9284    1.0101 H   0  0  0  0  0  0  0  0  0  0  0  0
    1.1231    7.4610    0.0364 H   0  0  0  0  0  0  0  0  0  0  0  0
    2.7772    8.1615    0.0364 H   0  0  0  0  0  0  0  0  0  0  0  0
   -2.0322   12.6871    0.1171 H   0  0  0  0  0  0  0  0  0  0  0  0
   -2.6086   13.5154   -1.3690 H   0  0  0  0  0  0  0  0  0  0  0  0
   -2.3674   11.7354   -1.3690 H   0  0  0  0  0  0  0  0  0  0  0  0
   -0.7444   13.2121   -3.5833 H   0  0  0  0  0  0  0  0  0  0  0  0
   -1.3604   14.5671   -2.4788 H   0  0  0  0  0  0  0  0  0  0  0  0
    1.4976   14.0343   -3.3332 H   0  0  0  0  0  0  0  0  0  0  0  0
    0.4400   15.4407   -3.7455 H   0  0  0  0  0  0  0  0  0  0  0  0
   -0.0415   16.4474   -0.1861 H   0  0  0  0  0  0  0  0  0  0  0  0
    0.2209   17.4066   -1.6820 H   0  0  0  0  0  0  0  0  0  0  0  0
   -0.9510   16.0452   -1.6820 H   0  0  0  0  0  0  0  0  0  0  0  0
  1  2  1  0
  2  3  1  0
  3  4  1  0
  4  5  1  0
  5  6  1  0
  6  7  1  0
  7  8  1  0
  7  9  1  0
  2 10  1  0
 10 11  1  0
 11 12  1  0
 12 13  1  0
 13 14  1  6
 13 15  1  0
 15 16  1  0
 16 17  1  0
 17 18  2  0
 18 19  1  0
 19 20  1  0
 20 21  1  0
 21 22  1  0
 22 23  1  0
 22 24  1  0
 24 25  1  0
 24 26  1  0
 19 27  1  0
 27 28  1  1
 27 29  1  0
 29 30  1  0
 30 31  1  0
 31 32  1  1
  7  5  1  0
 31 10  1  0
 31 13  1  0
 27 15  1  0
 24 18  1  0
  1 33  1  0
  1 34  1  0
  1 35  1  0
  2 36  1  6
  3 37  1  0
  3 38  1  0
  4 39  1  0
  4 40  1  0
  5 41  1  1
  8 42  1  0
  8 43  1  0
  8 44  1  0
  9 45  1  0
  9 46  1  0
  9 47  1  0
 10 48  1  6
 11 49  1  0
 11 50  1  0
 12 51  1  0
 12 52  1  0
 14 53  1  0
 14 54  1  0
 14 55  1  0
 15 56  1  1
 16 57  1  0
 16 58  1  0
 17 59  1  0
 19 60  1  6
 20 61  1  0
 20 62  1  0
 21 63  1  0
 21 64  1  0
 22 65  1  6
 23 66  1  0
 25 67  1  0
 25 68  1  0
 25 69  1  0
 26 70  1  0
 26 71  1  0
 26 72  1  0
 28 73  1  0
 28 74  1  0
 28 75  1  0
 29 76  1  0
 29 77  1  0
 30 78  1  0
 30 79  1  0
 32 80  1  0
 32 81  1  0
 32 82  1  0
M  END
>  <meeko>  (19) 
{"is_sidechain": [false], "intermolecular_energy": 2.731, "internal_energy": -0.839}

$$$$
