EPH_relaxed_0001_pdb2pqr_Repair_323_r2_0001_out
     RDKit          3D

 82 86  0  0  0  0  0  0  0  0999 V2000
    4.5010   17.6800   -0.7030 C   0  0  0  0  0  0  0  0  0  0  0  0
    3.1250   18.2570   -0.3570 C   0  0  2  0  0  0  0  0  0  0  0  0
    3.0870   18.8560    1.0630 C   0  0  0  0  0  0  0  0  0  0  0  0
    4.4050   18.7090    1.8280 C   0  0  0  0  0  0  0  0  0  0  0  0
    4.3020   19.2580    3.2190 C   0  0  2  0  0  0  0  0  0  0  0  0
    5.3290   20.1940    3.5710 O   0  0  0  0  0  0  0  0  0  0  0  0
    5.3130   18.9640    4.3120 C   0  0  0  0  0  0  0  0  0  0  0  0
    6.5000   18.0870    4.0610 C   0  0  0  0  0  0  0  0  0  0  0  0
    4.8910   19.1250    5.7390 C   0  0  0  0  0  0  0  0  0  0  0  0
    2.0590   17.1760   -0.4950 C   0  0  1  0  0  0  0  0  0  0  0  0
    0.7340   17.7170   -1.0960 C   0  0  0  0  0  0  0  0  0  0  0  0
    0.1430   16.5820   -1.9700 C   0  0  0  0  0  0  0  0  0  0  0  0
    0.9600   15.3270   -1.5840 C   0  0  1  0  0  0  0  0  0  0  0  0
    0.3100   14.8160   -0.2600 C   0  0  0  0  0  0  0  0  0  0  0  0
    1.0400   14.1960   -2.6610 C   0  0  2  0  0  0  0  0  0  0  0  0
   -0.3090   13.5570   -3.0380 C   0  0  0  0  0  0  0  0  0  0  0  0
   -0.7000   12.3680   -2.2240 C   0  0  0  0  0  0  0  0  0  0  0  0
    0.1220   11.6620   -1.4260 C   0  0  0  0  0  0  0  0  0  0  0  0
    1.6200   11.9810   -1.3580 C   0  0  1  0  0  0  0  0  0  0  0  0
    2.4350   10.6650   -1.4560 C   0  0  0  0  0  0  0  0  0  0  0  0
    2.0110    9.6350   -0.4140 C   0  0  0  0  0  0  0  0  0  0  0  0
    0.5280    9.3000   -0.5510 C   0  0  2  0  0  0  0  0  0  0  0  0
    0.3210    8.6230   -1.7940 O   0  0  0  0  0  0  0  0  0  0  0  0
   -0.3920   10.5510   -0.4770 C   0  0  0  0  0  0  0  0  0  0  0  0
   -0.3970   11.1090    0.9670 C   0  0  0  0  0  0  0  0  0  0  0  0
   -1.8460   10.0920   -0.7700 C   0  0  0  0  0  0  0  0  0  0  0  0
    2.1380   13.0960   -2.3660 C   0  0  1  0  0  0  0  0  0  0  0  0
    2.4980   12.4470   -3.7380 C   0  0  0  0  0  0  0  0  0  0  0  0
    3.4710   13.7170   -1.8050 C   0  0  0  0  0  0  0  0  0  0  0  0
    3.3300   14.9080   -0.8390 C   0  0  0  0  0  0  0  0  0  0  0  0
    2.3840   15.9690   -1.4100 C   0  0  2  0  0  0  0  0  0  0  0  0
    3.0230   16.5170   -2.7320 C   0  0  0  0  0  0  0  0  0  0  0  0
    5.0464   17.4513    0.2245 H   0  0  0  0  0  0  0  0  0  0  0  0
    4.3751   16.7589   -1.2910 H   0  0  0  0  0  0  0  0  0  0  0  0
    5.0697   18.4154   -1.2910 H   0  0  0  0  0  0  0  0  0  0  0  0
    2.9207   19.0736   -1.0651 H   0  0  0  0  0  0  0  0  0  0  0  0
    2.8500   19.9271    0.9819 H   0  0  0  0  0  0  0  0  0  0  0  0
    2.3241   18.2991    1.6267 H   0  0  0  0  0  0  0  0  0  0  0  0
    4.6677   17.6423    1.8842 H   0  0  0  0  0  0  0  0  0  0  0  0
    5.1787   19.2774    1.2911 H   0  0  0  0  0  0  0  0  0  0  0  0
    3.2046   19.1877    3.1904 H   0  0  0  0  0  0  0  0  0  0  0  0
    6.9306   17.7689    5.0219 H   0  0  0  0  0  0  0  0  0  0  0  0
    6.1871   17.2015    3.4883 H   0  0  0  0  0  0  0  0  0  0  0  0
    7.2545   18.6462    3.4883 H   0  0  0  0  0  0  0  0  0  0  0  0
    5.7114   18.8120    6.4015 H   0  0  0  0  0  0  0  0  0  0  0  0
    4.6459   20.1798    5.9321 H   0  0  0  0  0  0  0  0  0  0  0  0
    4.0056   18.5015    5.9321 H   0  0  0  0  0  0  0  0  0  0  0  0
    1.9935   16.8472    0.5527 H   0  0  0  0  0  0  0  0  0  0  0  0
    0.0322   17.9794   -0.2907 H   0  0  0  0  0  0  0  0  0  0  0  0
    0.9124   18.6232   -1.6934 H   0  0  0  0  0  0  0  0  0  0  0  0
   -0.9239   16.4349   -1.7461 H   0  0  0  0  0  0  0  0  0  0  0  0
    0.2066   16.8069   -3.0449 H   0  0  0  0  0  0  0  0  0  0  0  0
    0.8489   15.2396    0.6003 H   0  0  0  0  0  0  0  0  0  0  0  0
   -0.7435   15.1302   -0.2237 H   0  0  0  0  0  0  0  0  0  0  0  0
    0.3666   13.7181   -0.2237 H   0  0  0  0  0  0  0  0  0  0  0  0
    1.3709   14.7451   -3.5549 H   0  0  0  0  0  0  0  0  0  0  0  0
   -1.0916   14.3211   -2.9215 H   0  0  0  0  0  0  0  0  0  0  0  0
   -0.1970   13.1957   -4.0709 H   0  0  0  0  0  0  0  0  0  0  0  0
   -1.7488   12.0414   -2.2815 H   0  0  0  0  0  0  0  0  0  0  0  0
    1.7864   12.4507   -0.3774 H   0  0  0  0  0  0  0  0  0  0  0  0
    2.2894   10.2339   -2.4575 H   0  0  0  0  0  0  0  0  0  0  0  0
    3.4909   10.9118   -1.2709 H   0  0  0  0  0  0  0  0  0  0  0  0
    2.6018    8.7176   -0.5533 H   0  0  0  0  0  0  0  0  0  0  0  0
    2.1851   10.0559    0.5873 H   0  0  0  0  0  0  0  0  0  0  0  0
    0.2546    8.6591    0.3002 H   0  0  0  0  0  0  0  0  0  0  0  0
   -0.5520    8.8860   -2.1310 H   0  0  0  0  0  0  0  0  0  0  0  0
   -0.3895   10.2738    1.6828 H   0  0  0  0  0  0  0  0  0  0  0  0
    0.4956   11.7329    1.1221 H   0  0  0  0  0  0  0  0  0  0  0  0
   -1.3006   11.7168    1.1221 H   0  0  0  0  0  0  0  0  0  0  0  0
   -2.3760    9.9247    0.1793 H   0  0  0  0  0  0  0  0  0  0  0  0
   -2.3664   10.8695   -1.3484 H   0  0  0  0  0  0  0  0  0  0  0  0
   -1.8257    9.1566   -1.3484 H   0  0  0  0  0  0  0  0  0  0  0  0
    3.0251   11.4968   -3.5671 H   0  0  0  0  0  0  0  0  0  0  0  0
    1.5760   12.2576   -4.3072 H   0  0  0  0  0  0  0  0  0  0  0  0
    3.1468   13.1289   -4.3072 H   0  0  0  0  0  0  0  0  0  0  0  0
    4.0116   12.9198   -1.2736 H   0  0  0  0  0  0  0  0  0  0  0  0
    3.9929   14.1207   -2.6851 H   0  0  0  0  0  0  0  0  0  0  0  0
    2.9296   14.5478    0.1201 H   0  0  0  0  0  0  0  0  0  0  0  0
    4.3214   15.3628   -0.6963 H   0  0  0  0  0  0  0  0  0  0  0  0
    3.8365   17.2147   -2.4842 H   0  0  0  0  0  0  0  0  0  0  0  0
    3.4252   15.6787   -3.3198 H   0  0  0  0  0  0  0  0  0  0  0  0
    2.2558   17.0422   -3.3198 H   0  0  0  0  0  0  0  0  0  0  0  0
  1  2  1  0
  2  3  1  0
  3  4  1  0
  4  5  1  0
  5  6  1  0
  6  7  1  0
  7  8  1  0
  7  9  1  0
  2 10  1  0
 10 11  1  0
 11 12  1  0
 12 13  1  0
 13 14  1  1
 13 15  1  0
 15 16  1  0
 16 17  1  0
 17 18  2  0
 18 19  1  0
 19 20  1  0
 20 21  1  0
 21 22  1  0
 22 23  1  0
 22 24  1  0
 24 25  1  0
 24 26  1  0
 19 27  1  0
 27 28  1  6
 27 29  1  0
 29 30  1  0
 30 31  1  0
 31 32  1  6
  7  5  1  0
 31 10  1  0
 31 13  1  0
 27 15  1  0
 24 18  1  0
  1 33  1  0
  1 34  1  0
  1 35  1  0
  2 36  1  6
  3 37  1  0
  3 38  1  0
  4 39  1  0
  4 40  1  0
  5 41  1  1
  8 42  1  0
  8 43  1  0
  8 44  1  0
  9 45  1  0
  9 46  1  0
  9 47  1  0
 10 48  1  1
 11 49  1  0
 11 50  1  0
 12 51  1  0
 12 52  1  0
 14 53  1  0
 14 54  1  0
 14 55  1  0
 15 56  1  6
 16 57  1  0
 16 58  1  0
 17 59  1  0
 19 60  1  1
 20 61  1  0
 20 62  1  0
 21 63  1  0
 21 64  1  0
 22 65  1  1
 23 66  1  0
 25 67  1  0
 25 68  1  0
 25 69  1  0
 26 70  1  0
 26 71  1  0
 26 72  1  0
 28 73  1  0
 28 74  1  0
 28 75  1  0
 29 76  1  0
 29 77  1  0
 30 78  1  0
 30 79  1  0
 32 80  1  0
 32 81  1  0
 32 82  1  0
M  END
>  <meeko>  (1) 
{"is_sidechain": [false], "intermolecular_energy": 2.731, "internal_energy": -0.839}

$$$$
EPH_relaxed_0001_pdb2pqr_Repair_323_r2_0001_out
     RDKit          3D

 82 86  0  0  0  0  0  0  0  0999 V2000
    3.8520   17.9540    0.6810 C   0  0  0  0  0  0  0  0  0  0  0  0
    2.9490   18.3440   -0.4930 C   0  0  2  0  0  0  0  0  0  0  0  0
    2.2160   19.6770   -0.2450 C   0  0  0  0  0  0  0  0  0  0  0  0
    1.1600   19.6020    0.8610 C   0  0  0  0  0  0  0  0  0  0  0  0
   -0.1580   20.1550    0.4080 C   0  0  2  0  0  0  0  0  0  0  0  0
   -1.1710   20.1940    1.4210 O   0  0  0  0  0  0  0  0  0  0  0  0
   -1.4230   19.3250    0.3060 C   0  0  0  0  0  0  0  0  0  0  0  0
   -1.4330   17.8700    0.6580 C   0  0  0  0  0  0  0  0  0  0  0  0
   -2.5210   19.8010   -0.5940 C   0  0  0  0  0  0  0  0  0  0  0  0
    1.9380   17.2360   -0.7620 C   0  0  1  0  0  0  0  0  0  0  0  0
    0.7720   17.6990   -1.6750 C   0  0  0  0  0  0  0  0  0  0  0  0
    0.3820   16.4840   -2.5550 C   0  0  0  0  0  0  0  0  0  0  0  0
    1.0990   15.2810   -1.8980 C   0  0  1  0  0  0  0  0  0  0  0  0
    0.1820   14.8710   -0.7040 C   0  0  0  0  0  0  0  0  0  0  0  0
    1.4080   14.0660   -2.8330 C   0  0  2  0  0  0  0  0  0  0  0  0
    0.1720   13.3730   -3.4310 C   0  0  0  0  0  0  0  0  0  0  0  0
   -0.3840   12.2480   -2.6210 C   0  0  0  0  0  0  0  0  0  0  0  0
    0.2490   11.6260   -1.6090 C   0  0  0  0  0  0  0  0  0  0  0  0
    1.6990   11.9790   -1.2510 C   0  0  1  0  0  0  0  0  0  0  0  0
    2.5170   10.6750   -1.0600 C   0  0  0  0  0  0  0  0  0  0  0  0
    1.8800    9.7280   -0.0480 C   0  0  0  0  0  0  0  0  0  0  0  0
    0.4610    9.3540   -0.4680 C   0  0  2  0  0  0  0  0  0  0  0  0
    0.5250    8.5720   -1.6650 O   0  0  0  0  0  0  0  0  0  0  0  0
   -0.4550   10.5890   -0.7000 C   0  0  0  0  0  0  0  0  0  0  0  0
   -0.7690   11.2660    0.6570 C   0  0  0  0  0  0  0  0  0  0  0  0
   -1.8120   10.0790   -1.2550 C   0  0  0  0  0  0  0  0  0  0  0  0
    2.4190   13.0150   -2.2170 C   0  0  1  0  0  0  0  0  0  0  0  0
    3.0640   12.2610   -3.4200 C   0  0  0  0  0  0  0  0  0  0  0  0
    3.6010   13.7070   -1.4400 C   0  0  0  0  0  0  0  0  0  0  0  0
    3.2550   14.9720   -0.6320 C   0  0  0  0  0  0  0  0  0  0  0  0
    2.4530   15.9630   -1.4800 C   0  0  2  0  0  0  0  0  0  0  0  0
    3.3590   16.4100   -2.6780 C   0  0  0  0  0  0  0  0  0  0  0  0
    3.3384   18.1758    1.6281 H   0  0  0  0  0  0  0  0  0  0  0  0
    4.0770   16.8785    0.6290 H   0  0  0  0  0  0  0  0  0  0  0  0
    4.7892   18.5276    0.6290 H   0  0  0  0  0  0  0  0  0  0  0  0
    3.5935   18.4811   -1.3738 H   0  0  0  0  0  0  0  0  0  0  0  0
    2.9609   20.4357    0.0369 H   0  0  0  0  0  0  0  0  0  0  0  0
    1.6888   19.9321   -1.1761 H   0  0  0  0  0  0  0  0  0  0  0  0
    1.0238   18.5503    1.1531 H   0  0  0  0  0  0  0  0  0  0  0  0
    1.5108   20.2051    1.7114 H   0  0  0  0  0  0  0  0  0  0  0  0
    0.3427   20.8273   -0.3042 H   0  0  0  0  0  0  0  0  0  0  0  0
   -1.4338   17.7575    1.7522 H   0  0  0  0  0  0  0  0  0  0  0  0
   -2.3344   17.3979    0.2402 H   0  0  0  0  0  0  0  0  0  0  0  0
   -0.5382   17.3855    0.2402 H   0  0  0  0  0  0  0  0  0  0  0  0
   -3.3618   20.1655    0.0145 H   0  0  0  0  0  0  0  0  0  0  0  0
   -2.1467   20.6176   -1.2288 H   0  0  0  0  0  0  0  0  0  0  0  0
   -2.8611   18.9696   -1.2288 H   0  0  0  0  0  0  0  0  0  0  0  0
    1.6494   16.9950    0.2718 H   0  0  0  0  0  0  0  0  0  0  0  0
   -0.0860   18.0141   -1.0629 H   0  0  0  0  0  0  0  0  0  0  0  0
    1.0734   18.5554   -2.2961 H   0  0  0  0  0  0  0  0  0  0  0  0
   -0.7080   16.3358   -2.5515 H   0  0  0  0  0  0  0  0  0  0  0  0
    0.6734   16.6199   -3.6070 H   0  0  0  0  0  0  0  0  0  0  0  0
    0.6910   15.0986    0.2442 H   0  0  0  0  0  0  0  0  0  0  0  0
   -0.7623   15.4326   -0.7572 H   0  0  0  0  0  0  0  0  0  0  0  0
   -0.0291   13.7928   -0.7572 H   0  0  0  0  0  0  0  0  0  0  0  0
    1.9215   14.5441   -3.6802 H   0  0  0  0  0  0  0  0  0  0  0  0
   -0.6178   14.1295   -3.5489 H   0  0  0  0  0  0  0  0  0  0  0  0
    0.5027   12.9288   -4.3814 H   0  0  0  0  0  0  0  0  0  0  0  0
   -1.3961   11.8983   -2.8727 H   0  0  0  0  0  0  0  0  0  0  0  0
    1.6519   12.5326   -0.3016 H   0  0  0  0  0  0  0  0  0  0  0  0
    2.5894   10.1590   -2.0288 H   0  0  0  0  0  0  0  0  0  0  0  0
    3.5087   10.9561   -0.6760 H   0  0  0  0  0  0  0  0  0  0  0  0
    2.4876    8.8137    0.0213 H   0  0  0  0  0  0  0  0  0  0  0  0
    1.8351   10.2351    0.9271 H   0  0  0  0  0  0  0  0  0  0  0  0
    0.0132    8.7813    0.3575 H   0  0  0  0  0  0  0  0  0  0  0  0
   -0.3410    8.1490   -1.7870 H   0  0  0  0  0  0  0  0  0  0  0  0
   -0.4610   10.6019    1.4780 H   0  0  0  0  0  0  0  0  0  0  0  0
   -0.2197   12.2164    0.7284 H   0  0  0  0  0  0  0  0  0  0  0  0
   -1.8493   11.4606    0.7284 H   0  0  0  0  0  0  0  0  0  0  0  0
   -2.4796    9.8281   -0.4176 H   0  0  0  0  0  0  0  0  0  0  0  0
   -2.2750   10.8645   -1.8704 H   0  0  0  0  0  0  0  0  0  0  0  0
   -1.6430    9.1830   -1.8704 H   0  0  0  0  0  0  0  0  0  0  0  0
    3.7357   11.4757   -3.0430 H   0  0  0  0  0  0  0  0  0  0  0  0
    2.2731   11.8039   -4.0328 H   0  0  0  0  0  0  0  0  0  0  0  0
    3.6381   12.9715   -4.0328 H   0  0  0  0  0  0  0  0  0  0  0  0
    4.0163   12.9678   -0.7392 H   0  0  0  0  0  0  0  0  0  0  0  0
    4.2987   14.0458   -2.2200 H   0  0  0  0  0  0  0  0  0  0  0  0
    2.6585   14.6855    0.2467 H   0  0  0  0  0  0  0  0  0  0  0  0
    4.1924   15.4560   -0.3206 H   0  0  0  0  0  0  0  0  0  0  0  0
    4.2820   16.8654   -2.2897 H   0  0  0  0  0  0  0  0  0  0  0  0
    3.6129   15.5337   -3.2926 H   0  0  0  0  0  0  0  0  0  0  0  0
    2.8181   17.1446   -3.2926 H   0  0  0  0  0  0  0  0  0  0  0  0
  1  2  1  0
  2  3  1  0
  3  4  1  0
  4  5  1  0
  5  6  1  0
  6  7  1  0
  7  8  1  0
  7  9  1  0
  2 10  1  0
 10 11  1  0
 11 12  1  0
 12 13  1  0
 13 14  1  1
 13 15  1  0
 15 16  1  0
 16 17  1  0
 17 18  2  0
 18 19  1  0
 19 20  1  0
 20 21  1  0
 21 22  1  0
 22 23  1  0
 22 24  1  0
 24 25  1  0
 24 26  1  0
 19 27  1  0
 27 28  1  6
 27 29  1  0
 29 30  1  0
 30 31  1  0
 31 32  1  6
  7  5  1  0
 31 10  1  0
 31 13  1  0
 27 15  1  0
 24 18  1  0
  1 33  1  0
  1 34  1  0
  1 35  1  0
  2 36  1  6
  3 37  1  0
  3 38  1  0
  4 39  1  0
  4 40  1  0
  5 41  1  6
  8 42  1  0
  8 43  1  0
  8 44  1  0
  9 45  1  0
  9 46  1  0
  9 47  1  0
 10 48  1  1
 11 49  1  0
 11 50  1  0
 12 51  1  0
 12 52  1  0
 14 53  1  0
 14 54  1  0
 14 55  1  0
 15 56  1  6
 16 57  1  0
 16 58  1  0
 17 59  1  0
 19 60  1  1
 20 61  1  0
 20 62  1  0
 21 63  1  0
 21 64  1  0
 22 65  1  1
 23 66  1  0
 25 67  1  0
 25 68  1  0
 25 69  1  0
 26 70  1  0
 26 71  1  0
 26 72  1  0
 28 73  1  0
 28 74  1  0
 28 75  1  0
 29 76  1  0
 29 77  1  0
 30 78  1  0
 30 79  1  0
 32 80  1  0
 32 81  1  0
 32 82  1  0
M  END
>  <meeko>  (2) 
{"is_sidechain": [false], "intermolecular_energy": 2.731, "internal_energy": -0.839}

$$$$
EPH_relaxed_0001_pdb2pqr_Repair_323_r2_0001_out
     RDKit          3D

 82 86  0  0  0  0  0  0  0  0999 V2000
   -1.3080    8.9320   -2.0370 C   0  0  0  0  0  0  0  0  0  0  0  0
   -1.6500    9.2300   -0.5750 C   0  0  2  0  0  0  0  0  0  0  0  0
   -3.1700    9.3420   -0.3440 C   0  0  0  0  0  0  0  0  0  0  0  0
   -3.8980    7.9950   -0.3770 C   0  0  0  0  0  0  0  0  0  0  0  0
   -5.3390    8.1530   -0.7580 C   0  0  2  0  0  0  0  0  0  0  0  0
   -6.1460    6.9880   -0.5420 O   0  0  0  0  0  0  0  0  0  0  0  0
   -5.9870    7.4040   -1.9080 C   0  0  0  0  0  0  0  0  0  0  0  0
   -5.2080    6.4420   -2.7490 C   0  0  0  0  0  0  0  0  0  0  0  0
   -7.2330    7.9670   -2.5160 C   0  0  0  0  0  0  0  0  0  0  0  0
   -0.9600   10.5150   -0.1320 C   0  0  1  0  0  0  0  0  0  0  0  0
   -0.0500   10.3080    1.1080 C   0  0  0  0  0  0  0  0  0  0  0  0
    1.1650   11.2550    0.9340 C   0  0  0  0  0  0  0  0  0  0  0  0
    0.7570   12.2070   -0.2150 C   0  0  1  0  0  0  0  0  0  0  0  0
   -0.1470   13.2850    0.4600 C   0  0  0  0  0  0  0  0  0  0  0  0
    1.9270   12.8570   -1.0220 C   0  0  2  0  0  0  0  0  0  0  0  0
    2.8530   13.7750   -0.2040 C   0  0  0  0  0  0  0  0  0  0  0  0
    2.4540   15.2130   -0.1650 C   0  0  0  0  0  0  0  0  0  0  0  0
    1.5640   15.8000   -0.9870 C   0  0  0  0  0  0  0  0  0  0  0  0
    0.9290   15.0210   -2.1460 C   0  0  1  0  0  0  0  0  0  0  0  0
    0.9780   15.8810   -3.4360 C   0  0  0  0  0  0  0  0  0  0  0  0
    0.3500   17.2590   -3.2450 C   0  0  0  0  0  0  0  0  0  0  0  0
    1.0470   18.0250   -2.1240 C   0  0  2  0  0  0  0  0  0  0  0  0
    2.3860   18.3200   -2.5300 O   0  0  0  0  0  0  0  0  0  0  0  0
    1.0680   17.2520   -0.7750 C   0  0  0  0  0  0  0  0  0  0  0  0
   -0.3620   17.1950   -0.1840 C   0  0  0  0  0  0  0  0  0  0  0  0
    1.9220   18.0710    0.2310 C   0  0  0  0  0  0  0  0  0  0  0  0
    1.4770   13.5470   -2.3740 C   0  0  1  0  0  0  0  0  0  0  0  0
    2.7350   13.5840   -3.2950 C   0  0  0  0  0  0  0  0  0  0  0  0
    0.3890   12.7070   -3.1410 C   0  0  0  0  0  0  0  0  0  0  0  0
   -0.6690   11.9900   -2.2810 C   0  0  0  0  0  0  0  0  0  0  0  0
   -0.0100   11.1990   -1.1470 C   0  0  2  0  0  0  0  0  0  0  0  0
    0.8890   10.0920   -1.7950 C   0  0  0  0  0  0  0  0  0  0  0  0
   -0.4793    8.2099   -2.0799 H   0  0  0  0  0  0  0  0  0  0  0  0
   -2.1895    8.5088   -2.5409 H   0  0  0  0  0  0  0  0  0  0  0  0
   -1.0094    9.8631   -2.5409 H   0  0  0  0  0  0  0  0  0  0  0  0
   -1.2867    8.3849    0.0282 H   0  0  0  0  0  0  0  0  0  0  0  0
   -3.3387    9.8041    0.6399 H   0  0  0  0  0  0  0  0  0  0  0  0
   -3.5767    9.9478   -1.1671 H   0  0  0  0  0  0  0  0  0  0  0  0
   -3.4047    7.3411   -1.1112 H   0  0  0  0  0  0  0  0  0  0  0  0
   -3.8558    7.5576    0.6314 H   0  0  0  0  0  0  0  0  0  0  0  0
   -5.3175    9.2200   -0.4913 H   0  0  0  0  0  0  0  0  0  0  0  0
   -4.6504    5.7534   -2.0972 H   0  0  0  0  0  0  0  0  0  0  0  0
   -5.8985    5.8675   -3.3840 H   0  0  0  0  0  0  0  0  0  0  0  0
   -4.5025    6.9980   -3.3840 H   0  0  0  0  0  0  0  0  0  0  0  0
   -7.9223    8.2785   -1.7174 H   0  0  0  0  0  0  0  0  0  0  0  0
   -6.9765    8.8367   -3.1388 H   0  0  0  0  0  0  0  0  0  0  0  0
   -7.7161    7.1997   -3.1388 H   0  0  0  0  0  0  0  0  0  0  0  0
   -1.8431   11.1475    0.0415 H   0  0  0  0  0  0  0  0  0  0  0  0
   -0.5988   10.5609    2.0271 H   0  0  0  0  0  0  0  0  0  0  0  0
    0.2744    9.2601    1.1894 H   0  0  0  0  0  0  0  0  0  0  0  0
    1.3521   11.8205    1.8588 H   0  0  0  0  0  0  0  0  0  0  0  0
    2.0924   10.7068    0.7118 H   0  0  0  0  0  0  0  0  0  0  0  0
   -0.0712   13.1946    1.5536 H   0  0  0  0  0  0  0  0  0  0  0  0
    0.1846   14.2873    0.1511 H   0  0  0  0  0  0  0  0  0  0  0  0
   -1.1917   13.1331    0.1511 H   0  0  0  0  0  0  0  0  0  0  0  0
    2.5377   11.9842   -1.2964 H   0  0  0  0  0  0  0  0  0  0  0  0
    2.8756   13.4005    0.8300 H   0  0  0  0  0  0  0  0  0  0  0  0
    3.8316   13.7445   -0.7055 H   0  0  0  0  0  0  0  0  0  0  0  0
    2.9271   15.8464    0.5999 H   0  0  0  0  0  0  0  0  0  0  0  0
   -0.1169   14.8429   -1.8554 H   0  0  0  0  0  0  0  0  0  0  0  0
    2.0290   16.0107   -3.7336 H   0  0  0  0  0  0  0  0  0  0  0  0
    0.3999   15.3550   -4.2101 H   0  0  0  0  0  0  0  0  0  0  0  0
    0.4410   17.8291   -4.1813 H   0  0  0  0  0  0  0  0  0  0  0  0
   -0.7085   17.1284   -2.9758 H   0  0  0  0  0  0  0  0  0  0  0  0
    0.4734   18.9470   -1.9485 H   0  0  0  0  0  0  0  0  0  0  0  0
    2.6030   17.7350   -3.2760 H   0  0  0  0  0  0  0  0  0  0  0  0
   -0.3051   17.1973    0.9145 H   0  0  0  0  0  0  0  0  0  0  0  0
   -0.9342   18.0711   -0.5233 H   0  0  0  0  0  0  0  0  0  0  0  0
   -0.8626   16.2762   -0.5233 H   0  0  0  0  0  0  0  0  0  0  0  0
    1.6388   17.7994    1.2586 H   0  0  0  0  0  0  0  0  0  0  0  0
    2.9877   17.8486    0.0734 H   0  0  0  0  0  0  0  0  0  0  0  0
    1.7444   19.1451    0.0734 H   0  0  0  0  0  0  0  0  0  0  0  0
    3.6430   13.6107   -2.6746 H   0  0  0  0  0  0  0  0  0  0  0  0
    2.7511   12.6859   -3.9300 H   0  0  0  0  0  0  0  0  0  0  0  0
    2.6983   14.4815   -3.9300 H   0  0  0  0  0  0  0  0  0  0  0  0
   -0.1417   13.3908   -3.8198 H   0  0  0  0  0  0  0  0  0  0  0  0
    0.9471   11.9017   -3.6411 H   0  0  0  0  0  0  0  0  0  0  0  0
   -1.3493   12.7388   -1.8492 H   0  0  0  0  0  0  0  0  0  0  0  0
   -1.2243   11.2886   -2.9210 H   0  0  0  0  0  0  0  0  0  0  0  0
    1.3699    9.4998   -1.0025 H   0  0  0  0  0  0  0  0  0  0  0  0
    0.2670    9.4332   -2.4188 H   0  0  0  0  0  0  0  0  0  0  0  0
    1.6614   10.5656   -2.4188 H   0  0  0  0  0  0  0  0  0  0  0  0
  1  2  1  0
  2  3  1  0
  3  4  1  0
  4  5  1  0
  5  6  1  0
  6  7  1  0
  7  8  1  0
  7  9  1  0
  2 10  1  0
 10 11  1  0
 11 12  1  0
 12 13  1  0
 13 14  1  1
 13 15  1  0
 15 16  1  0
 16 17  1  0
 17 18  2  0
 18 19  1  0
 19 20  1  0
 20 21  1  0
 21 22  1  0
 22 23  1  0
 22 24  1  0
 24 25  1  0
 24 26  1  0
 19 27  1  0
 27 28  1  6
 27 29  1  0
 29 30  1  0
 30 31  1  0
 31 32  1  6
  7  5  1  0
 31 10  1  0
 31 13  1  0
 27 15  1  0
 24 18  1  0
  1 33  1  0
  1 34  1  0
  1 35  1  0
  2 36  1  1
  3 37  1  0
  3 38  1  0
  4 39  1  0
  4 40  1  0
  5 41  1  1
  8 42  1  0
  8 43  1  0
  8 44  1  0
  9 45  1  0
  9 46  1  0
  9 47  1  0
 10 48  1  1
 11 49  1  0
 11 50  1  0
 12 51  1  0
 12 52  1  0
 14 53  1  0
 14 54  1  0
 14 55  1  0
 15 56  1  6
 16 57  1  0
 16 58  1  0
 17 59  1  0
 19 60  1  1
 20 61  1  0
 20 62  1  0
 21 63  1  0
 21 64  1  0
 22 65  1  1
 23 66  1  0
 25 67  1  0
 25 68  1  0
 25 69  1  0
 26 70  1  0
 26 71  1  0
 26 72  1  0
 28 73  1  0
 28 74  1  0
 28 75  1  0
 29 76  1  0
 29 77  1  0
 30 78  1  0
 30 79  1  0
 32 80  1  0
 32 81  1  0
 32 82  1  0
M  END
>  <meeko>  (3) 
{"is_sidechain": [false], "intermolecular_energy": 2.731, "internal_energy": -0.839}

$$$$
EPH_relaxed_0001_pdb2pqr_Repair_323_r2_0001_out
     RDKit          3D

 82 86  0  0  0  0  0  0  0  0999 V2000
    2.0470   18.4940   -1.7920 C   0  0  0  0  0  0  0  0  0  0  0  0
    1.8100   17.4650   -0.6830 C   0  0  2  0  0  0  0  0  0  0  0  0
    3.1270   16.9970   -0.0330 C   0  0  0  0  0  0  0  0  0  0  0  0
    4.0730   18.1440    0.3350 C   0  0  0  0  0  0  0  0  0  0  0  0
    3.7460   18.7220    1.6790 C   0  0  2  0  0  0  0  0  0  0  0  0
    4.0990   20.1020    1.8390 O   0  0  0  0  0  0  0  0  0  0  0  0
    4.7990   19.1670    2.6760 C   0  0  0  0  0  0  0  0  0  0  0  0
    6.2600   19.0520    2.3720 C   0  0  0  0  0  0  0  0  0  0  0  0
    4.4230   19.2540    4.1230 C   0  0  0  0  0  0  0  0  0  0  0  0
    1.0500   16.2660   -1.2400 C   0  0  1  0  0  0  0  0  0  0  0  0
    0.4910   16.5230   -2.6650 C   0  0  0  0  0  0  0  0  0  0  0  0
    0.5710   15.1760   -3.4270 C   0  0  0  0  0  0  0  0  0  0  0  0
    0.8570   14.1240   -2.3300 C   0  0  1  0  0  0  0  0  0  0  0  0
   -0.5350   13.8230   -1.6900 C   0  0  0  0  0  0  0  0  0  0  0  0
    1.5720   12.8140   -2.7970 C   0  0  2  0  0  0  0  0  0  0  0  0
    0.7840   11.9660   -3.8110 C   0  0  0  0  0  0  0  0  0  0  0  0
   -0.1120   10.9310   -3.2160 C   0  0  0  0  0  0  0  0  0  0  0  0
   -0.0680   10.4970   -1.9420 C   0  0  0  0  0  0  0  0  0  0  0  0
    1.0210   10.9880   -0.9800 C   0  0  1  0  0  0  0  0  0  0  0  0
    1.6230    9.7790   -0.2180 C   0  0  0  0  0  0  0  0  0  0  0  0
    0.5590    8.9410    0.4840 C   0  0  0  0  0  0  0  0  0  0  0  0
   -0.4720    8.4220   -0.5140 C   0  0  2  0  0  0  0  0  0  0  0  0
    0.1650    7.4880   -1.3910 O   0  0  0  0  0  0  0  0  0  0  0  0
   -1.1400    9.5510   -1.3480 C   0  0  0  0  0  0  0  0  0  0  0  0
   -2.0750   10.3860   -0.4390 C   0  0  0  0  0  0  0  0  0  0  0  0
   -2.0530    8.8830   -2.4110 C   0  0  0  0  0  0  0  0  0  0  0  0
    2.1360   11.9260   -1.6150 C   0  0  1  0  0  0  0  0  0  0  0  0
    3.2820   11.0570   -2.2180 C   0  0  0  0  0  0  0  0  0  0  0  0
    2.7890   12.7930   -0.4750 C   0  0  0  0  0  0  0  0  0  0  0  0
    2.1050   14.1320   -0.1410 C   0  0  0  0  0  0  0  0  0  0  0  0
    1.8360   14.9430   -1.4120 C   0  0  2  0  0  0  0  0  0  0  0  0
    3.2200   15.2790   -2.0660 C   0  0  0  0  0  0  0  0  0  0  0  0
    2.2723   19.4723   -1.3424 H   0  0  0  0  0  0  0  0  0  0  0  0
    2.8947   18.1728   -2.4151 H   0  0  0  0  0  0  0  0  0  0  0  0
    1.1442   18.5760   -2.4151 H   0  0  0  0  0  0  0  0  0  0  0  0
    1.2116   17.9546    0.0994 H   0  0  0  0  0  0  0  0  0  0  0  0
    2.8832   16.4401    0.8837 H   0  0  0  0  0  0  0  0  0  0  0  0
    3.6489   16.3752   -0.7753 H   0  0  0  0  0  0  0  0  0  0  0  0
    5.1050   17.7636    0.3519 H   0  0  0  0  0  0  0  0  0  0  0  0
    3.9583   18.9383   -0.4173 H   0  0  0  0  0  0  0  0  0  0  0  0
    2.8700   18.0638    1.7755 H   0  0  0  0  0  0  0  0  0  0  0  0
    6.8279   19.0073    3.3130 H   0  0  0  0  0  0  0  0  0  0  0  0
    6.4424   18.1367    1.7898 H   0  0  0  0  0  0  0  0  0  0  0  0
    6.5834   19.9275    1.7898 H   0  0  0  0  0  0  0  0  0  0  0  0
    5.3072   19.0494    4.7445 H   0  0  0  0  0  0  0  0  0  0  0  0
    4.0453   20.2633    4.3437 H   0  0  0  0  0  0  0  0  0  0  0  0
    3.6403   18.5132    4.3437 H   0  0  0  0  0  0  0  0  0  0  0  0
    0.2872   16.1509   -0.4559 H   0  0  0  0  0  0  0  0  0  0  0  0
   -0.5533   16.8635   -2.6064 H   0  0  0  0  0  0  0  0  0  0  0  0
    1.0695   17.3034   -3.1811 H   0  0  0  0  0  0  0  0  0  0  0  0
   -0.3809   14.9595   -3.9340 H   0  0  0  0  0  0  0  0  0  0  0  0
    1.3445   15.1843   -4.2090 H   0  0  0  0  0  0  0  0  0  0  0  0
   -0.4464   13.8422   -0.5937 H   0  0  0  0  0  0  0  0  0  0  0  0
   -1.2595   14.5852   -2.0127 H   0  0  0  0  0  0  0  0  0  0  0  0
   -0.8798   12.8295   -2.0127 H   0  0  0  0  0  0  0  0  0  0  0  0
    2.4419   13.2037   -3.3460 H   0  0  0  0  0  0  0  0  0  0  0  0
    0.1644   12.6460   -4.4142 H   0  0  0  0  0  0  0  0  0  0  0  0
    1.5352   11.4174   -4.3981 H   0  0  0  0  0  0  0  0  0  0  0  0
   -0.8725   10.4851   -3.8738 H   0  0  0  0  0  0  0  0  0  0  0  0
    0.5184   11.6626   -0.2713 H   0  0  0  0  0  0  0  0  0  0  0  0
    2.1576    9.1402   -0.9364 H   0  0  0  0  0  0  0  0  0  0  0  0
    2.2995   10.1743    0.5540 H   0  0  0  0  0  0  0  0  0  0  0  0
    1.0428    8.0862    0.9793 H   0  0  0  0  0  0  0  0  0  0  0  0
    0.0452    9.5732    1.2231 H   0  0  0  0  0  0  0  0  0  0  0  0
   -1.2760    7.9408    0.0623 H   0  0  0  0  0  0  0  0  0  0  0  0
   -0.5190    7.1210   -1.9770 H   0  0  0  0  0  0  0  0  0  0  0  0
   -1.8423   10.1782    0.6158 H   0  0  0  0  0  0  0  0  0  0  0  0
   -1.9252   11.4564   -0.6435 H   0  0  0  0  0  0  0  0  0  0  0  0
   -3.1217   10.1166   -0.6435 H   0  0  0  0  0  0  0  0  0  0  0  0
   -2.8418    8.3059   -1.9063 H   0  0  0  0  0  0  0  0  0  0  0  0
   -2.5124    9.6597   -3.0400 H   0  0  0  0  0  0  0  0  0  0  0  0
   -1.4517    8.2100   -3.0400 H   0  0  0  0  0  0  0  0  0  0  0  0
    3.8710   10.6104   -1.4033 H   0  0  0  0  0  0  0  0  0  0  0  0
    2.8490   10.2582   -2.8380 H   0  0  0  0  0  0  0  0  0  0  0  0
    3.9344   11.6895   -2.8380 H   0  0  0  0  0  0  0  0  0  0  0  0
    2.7963   12.1855    0.4420 H   0  0  0  0  0  0  0  0  0  0  0  0
    3.7842   13.0659   -0.8559 H   0  0  0  0  0  0  0  0  0  0  0  0
    1.1499   13.9313    0.3665 H   0  0  0  0  0  0  0  0  0  0  0  0
    2.7731   14.7137    0.5111 H   0  0  0  0  0  0  0  0  0  0  0  0
    3.9644   15.4597   -1.2765 H   0  0  0  0  0  0  0  0  0  0  0  0
    3.5454   14.4338   -2.6903 H   0  0  0  0  0  0  0  0  0  0  0  0
    3.1216   16.1794   -2.6903 H   0  0  0  0  0  0  0  0  0  0  0  0
  1  2  1  0
  2  3  1  0
  3  4  1  0
  4  5  1  0
  5  6  1  0
  6  7  1  0
  7  8  1  0
  7  9  1  0
  2 10  1  0
 10 11  1  0
 11 12  1  0
 12 13  1  0
 13 14  1  1
 13 15  1  0
 15 16  1  0
 16 17  1  0
 17 18  2  0
 18 19  1  0
 19 20  1  0
 20 21  1  0
 21 22  1  0
 22 23  1  0
 22 24  1  0
 24 25  1  0
 24 26  1  0
 19 27  1  0
 27 28  1  6
 27 29  1  0
 29 30  1  0
 30 31  1  0
 31 32  1  6
  7  5  1  0
 31 10  1  0
 31 13  1  0
 27 15  1  0
 24 18  1  0
  1 33  1  0
  1 34  1  0
  1 35  1  0
  2 36  1  1
  3 37  1  0
  3 38  1  0
  4 39  1  0
  4 40  1  0
  5 41  1  1
  8 42  1  0
  8 43  1  0
  8 44  1  0
  9 45  1  0
  9 46  1  0
  9 47  1  0
 10 48  1  1
 11 49  1  0
 11 50  1  0
 12 51  1  0
 12 52  1  0
 14 53  1  0
 14 54  1  0
 14 55  1  0
 15 56  1  6
 16 57  1  0
 16 58  1  0
 17 59  1  0
 19 60  1  1
 20 61  1  0
 20 62  1  0
 21 63  1  0
 21 64  1  0
 22 65  1  1
 23 66  1  0
 25 67  1  0
 25 68  1  0
 25 69  1  0
 26 70  1  0
 26 71  1  0
 26 72  1  0
 28 73  1  0
 28 74  1  0
 28 75  1  0
 29 76  1  0
 29 77  1  0
 30 78  1  0
 30 79  1  0
 32 80  1  0
 32 81  1  0
 32 82  1  0
M  END
>  <meeko>  (4) 
{"is_sidechain": [false], "intermolecular_energy": 2.731, "internal_energy": -0.839}

$$$$
EPH_relaxed_0001_pdb2pqr_Repair_323_r2_0001_out
     RDKit          3D

 82 86  0  0  0  0  0  0  0  0999 V2000
    2.9520   17.1710    0.3310 C   0  0  0  0  0  0  0  0  0  0  0  0
    2.4510   17.3400   -1.1060 C   0  0  2  0  0  0  0  0  0  0  0  0
    1.7350   18.6890   -1.3160 C   0  0  0  0  0  0  0  0  0  0  0  0
    1.3890   19.4120   -0.0110 C   0  0  0  0  0  0  0  0  0  0  0  0
   -0.0500   19.2220    0.3630 C   0  0  2  0  0  0  0  0  0  0  0  0
   -0.7470   18.2420   -0.4170 O   0  0  0  0  0  0  0  0  0  0  0  0
   -1.2070   19.5970   -0.5450 C   0  0  0  0  0  0  0  0  0  0  0  0
   -0.9750   20.1930   -1.8980 C   0  0  0  0  0  0  0  0  0  0  0  0
   -2.5500   19.8390    0.0710 C   0  0  0  0  0  0  0  0  0  0  0  0
    1.5170   16.1920   -1.4690 C   0  0  1  0  0  0  0  0  0  0  0  0
    0.7150   16.4640   -2.7700 C   0  0  0  0  0  0  0  0  0  0  0  0
    0.5540   15.0990   -3.4890 C   0  0  0  0  0  0  0  0  0  0  0  0
    0.9700   14.0500   -2.4320 C   0  0  1  0  0  0  0  0  0  0  0  0
   -0.2910   13.8660   -1.5310 C   0  0  0  0  0  0  0  0  0  0  0  0
    1.4890   12.6820   -2.9830 C   0  0  2  0  0  0  0  0  0  0  0  0
    0.4640   11.8770   -3.8010 C   0  0  0  0  0  0  0  0  0  0  0  0
   -0.3710   10.9220   -3.0140 C   0  0  0  0  0  0  0  0  0  0  0  0
   -0.1150   10.5100   -1.7580 C   0  0  0  0  0  0  0  0  0  0  0  0
    1.1690   10.9370   -1.0360 C   0  0  1  0  0  0  0  0  0  0  0  0
    1.8200    9.7000   -0.3630 C   0  0  0  0  0  0  0  0  0  0  0  0
    0.8540    8.9570    0.5550 C   0  0  0  0  0  0  0  0  0  0  0  0
   -0.3830    8.4990   -0.2120 C   0  0  2  0  0  0  0  0  0  0  0  0
    0.0070    7.5030   -1.1630 O   0  0  0  0  0  0  0  0  0  0  0  0
   -1.1180    9.6590   -0.9410 C   0  0  0  0  0  0  0  0  0  0  0  0
   -1.8000   10.5780    0.1010 C   0  0  0  0  0  0  0  0  0  0  0  0
   -2.2610    9.0410   -1.7900 C   0  0  0  0  0  0  0  0  0  0  0  0
    2.2050   11.7770   -1.9010 C   0  0  1  0  0  0  0  0  0  0  0  0
    3.1500   10.8130   -2.6820 C   0  0  0  0  0  0  0  0  0  0  0  0
    3.1230   12.6130   -0.9340 C   0  0  0  0  0  0  0  0  0  0  0  0
    2.6110   14.0060   -0.5200 C   0  0  0  0  0  0  0  0  0  0  0  0
    2.1610   14.8100   -1.7440 C   0  0  2  0  0  0  0  0  0  0  0  0
    3.4140   15.0300   -2.6580 C   0  0  0  0  0  0  0  0  0  0  0  0
    2.1497   17.4416    1.0332 H   0  0  0  0  0  0  0  0  0  0  0  0
    3.2460   16.1240    0.4961 H   0  0  0  0  0  0  0  0  0  0  0  0
    3.8202   17.8260    0.4961 H   0  0  0  0  0  0  0  0  0  0  0  0
    3.3301   17.3267   -1.7670 H   0  0  0  0  0  0  0  0  0  0  0  0
    2.3910   19.3414   -1.9111 H   0  0  0  0  0  0  0  0  0  0  0  0
    0.7844   18.4725   -1.8254 H   0  0  0  0  0  0  0  0  0  0  0  0
    2.0225   19.0145    0.7956 H   0  0  0  0  0  0  0  0  0  0  0  0
    1.5662   20.4877   -0.1574 H   0  0  0  0  0  0  0  0  0  0  0  0
    0.1681   19.4563    1.4154 H   0  0  0  0  0  0  0  0  0  0  0  0
   -0.5780   21.2128   -1.7863 H   0  0  0  0  0  0  0  0  0  0  0  0
   -0.2512   19.5764   -2.4511 H   0  0  0  0  0  0  0  0  0  0  0  0
   -1.9252   20.2280   -2.4511 H   0  0  0  0  0  0  0  0  0  0  0  0
   -2.4590   19.8226    1.1671 H   0  0  0  0  0  0  0  0  0  0  0  0
   -2.9296   20.8200   -0.2508 H   0  0  0  0  0  0  0  0  0  0  0  0
   -3.2481   19.0522   -0.2508 H   0  0  0  0  0  0  0  0  0  0  0  0
    0.9124   16.1488   -0.5510 H   0  0  0  0  0  0  0  0  0  0  0  0
   -0.2725   16.8825   -2.5259 H   0  0  0  0  0  0  0  0  0  0  0  0
    1.2365   17.1896   -3.4115 H   0  0  0  0  0  0  0  0  0  0  0  0
   -0.4899   14.9444   -3.7996 H   0  0  0  0  0  0  0  0  0  0  0  0
    1.1628   15.0345   -4.4029 H   0  0  0  0  0  0  0  0  0  0  0  0
    0.0052   13.9092   -0.4725 H   0  0  0  0  0  0  0  0  0  0  0  0
   -1.0132   14.6683   -1.7427 H   0  0  0  0  0  0  0  0  0  0  0  0
   -0.7538   12.8908   -1.7427 H   0  0  0  0  0  0  0  0  0  0  0  0
    2.2630   12.9946   -3.6994 H   0  0  0  0  0  0  0  0  0  0  0  0
   -0.2111   12.5903   -4.2965 H   0  0  0  0  0  0  0  0  0  0  0  0
    1.0486   11.2637   -4.5025 H   0  0  0  0  0  0  0  0  0  0  0  0
   -1.2718   10.5209   -3.5016 H   0  0  0  0  0  0  0  0  0  0  0  0
    0.8594   11.6607   -0.2676 H   0  0  0  0  0  0  0  0  0  0  0  0
    2.1610    9.0098   -1.1487 H   0  0  0  0  0  0  0  0  0  0  0  0
    2.6579   10.0577    0.2534 H   0  0  0  0  0  0  0  0  0  0  0  0
    1.3625    8.0774    0.9766 H   0  0  0  0  0  0  0  0  0  0  0  0
    0.5371    9.6392    1.3576 H   0  0  0  0  0  0  0  0  0  0  0  0
   -1.0935    8.0912    0.5221 H   0  0  0  0  0  0  0  0  0  0  0  0
   -0.5270    7.6370   -1.9650 H   0  0  0  0  0  0  0  0  0  0  0  0
   -1.5455   10.2350    1.1147 H   0  0  0  0  0  0  0  0  0  0  0  0
   -1.4484   11.6113   -0.0356 H   0  0  0  0  0  0  0  0  0  0  0  0
   -2.8909   10.5408   -0.0356 H   0  0  0  0  0  0  0  0  0  0  0  0
   -3.0300    8.6252   -1.1224 H   0  0  0  0  0  0  0  0  0  0  0  0
   -2.7087    9.8200   -2.4247 H   0  0  0  0  0  0  0  0  0  0  0  0
   -1.8543    8.2399   -2.4247 H   0  0  0  0  0  0  0  0  0  0  0  0
    3.7357   10.2155   -1.9679 H   0  0  0  0  0  0  0  0  0  0  0  0
    2.5490   10.1431   -3.3145 H   0  0  0  0  0  0  0  0  0  0  0  0
    3.8318   11.4005   -3.3145 H   0  0  0  0  0  0  0  0  0  0  0  0
    3.2627   12.0236   -0.0158 H   0  0  0  0  0  0  0  0  0  0  0  0
    4.0438   12.8033   -1.5049 H   0  0  0  0  0  0  0  0  0  0  0  0
    1.7592   13.8873    0.1658 H   0  0  0  0  0  0  0  0  0  0  0  0
    3.4302   14.5485   -0.0254 H   0  0  0  0  0  0  0  0  0  0  0  0
    4.3033   15.1861   -2.0297 H   0  0  0  0  0  0  0  0  0  0  0  0
    3.5646   14.1446   -3.2931 H   0  0  0  0  0  0  0  0  0  0  0  0
    3.2540   15.9138   -3.2931 H   0  0  0  0  0  0  0  0  0  0  0  0
  1  2  1  0
  2  3  1  0
  3  4  1  0
  4  5  1  0
  5  6  1  0
  6  7  1  0
  7  8  1  0
  7  9  1  0
  2 10  1  0
 10 11  1  0
 11 12  1  0
 12 13  1  0
 13 14  1  1
 13 15  1  0
 15 16  1  0
 16 17  1  0
 17 18  2  0
 18 19  1  0
 19 20  1  0
 20 21  1  0
 21 22  1  0
 22 23  1  0
 22 24  1  0
 24 25  1  0
 24 26  1  0
 19 27  1  0
 27 28  1  6
 27 29  1  0
 29 30  1  0
 30 31  1  0
 31 32  1  6
  7  5  1  0
 31 10  1  0
 31 13  1  0
 27 15  1  0
 24 18  1  0
  1 33  1  0
  1 34  1  0
  1 35  1  0
  2 36  1  6
  3 37  1  0
  3 38  1  0
  4 39  1  0
  4 40  1  0
  5 41  1  1
  8 42  1  0
  8 43  1  0
  8 44  1  0
  9 45  1  0
  9 46  1  0
  9 47  1  0
 10 48  1  1
 11 49  1  0
 11 50  1  0
 12 51  1  0
 12 52  1  0
 14 53  1  0
 14 54  1  0
 14 55  1  0
 15 56  1  6
 16 57  1  0
 16 58  1  0
 17 59  1  0
 19 60  1  1
 20 61  1  0
 20 62  1  0
 21 63  1  0
 21 64  1  0
 22 65  1  1
 23 66  1  0
 25 67  1  0
 25 68  1  0
 25 69  1  0
 26 70  1  0
 26 71  1  0
 26 72  1  0
 28 73  1  0
 28 74  1  0
 28 75  1  0
 29 76  1  0
 29 77  1  0
 30 78  1  0
 30 79  1  0
 32 80  1  0
 32 81  1  0
 32 82  1  0
M  END
>  <meeko>  (5) 
{"is_sidechain": [false], "intermolecular_energy": 2.731, "internal_energy": -0.839}

$$$$
EPH_relaxed_0001_pdb2pqr_Repair_323_r2_0001_out
     RDKit          3D

 82 86  0  0  0  0  0  0  0  0999 V2000
    3.6790   17.9140   -1.3700 C   0  0  0  0  0  0  0  0  0  0  0  0
    2.6390   17.4470   -2.3930 C   0  0  2  0  0  0  0  0  0  0  0  0
    1.2220   17.9480   -2.0500 C   0  0  0  0  0  0  0  0  0  0  0  0
    1.1680   18.8420   -0.8080 C   0  0  0  0  0  0  0  0  0  0  0  0
   -0.0760   19.6760   -0.7790 C   0  0  2  0  0  0  0  0  0  0  0  0
   -0.4310   20.1770    0.5160 O   0  0  0  0  0  0  0  0  0  0  0  0
   -1.3530   19.2510   -0.0790 C   0  0  0  0  0  0  0  0  0  0  0  0
   -1.4500   17.9410    0.6400 C   0  0  0  0  0  0  0  0  0  0  0  0
   -2.6450   19.8750   -0.5050 C   0  0  0  0  0  0  0  0  0  0  0  0
    2.6460   15.9250   -2.4830 C   0  0  1  0  0  0  0  0  0  0  0  0
    4.0750   15.3440   -2.6530 C   0  0  0  0  0  0  0  0  0  0  0  0
    4.1050   13.9980   -1.8840 C   0  0  0  0  0  0  0  0  0  0  0  0
    2.6200   13.6890   -1.5800 C   0  0  1  0  0  0  0  0  0  0  0  0
    2.0620   13.0670   -2.8980 C   0  0  0  0  0  0  0  0  0  0  0  0
    2.3440   12.7700   -0.3460 C   0  0  2  0  0  0  0  0  0  0  0  0
    2.9180   11.3460   -0.4510 C   0  0  0  0  0  0  0  0  0  0  0  0
    2.0050   10.3330   -1.0560 C   0  0  0  0  0  0  0  0  0  0  0  0
    0.6790   10.4840   -1.2360 C   0  0  0  0  0  0  0  0  0  0  0  0
   -0.0480   11.7330   -0.7240 C   0  0  1  0  0  0  0  0  0  0  0  0
   -1.3450   11.3110    0.0150 C   0  0  0  0  0  0  0  0  0  0  0  0
   -2.2430   10.4230   -0.8410 C   0  0  0  0  0  0  0  0  0  0  0  0
   -1.5030    9.1630   -1.2830 C   0  0  2  0  0  0  0  0  0  0  0  0
   -1.2360    8.3580   -0.1300 O   0  0  0  0  0  0  0  0  0  0  0  0
   -0.1740    9.4640   -2.0300 C   0  0  0  0  0  0  0  0  0  0  0  0
   -0.4850   10.0690   -3.4220 C   0  0  0  0  0  0  0  0  0  0  0  0
    0.5420    8.1110   -2.2950 C   0  0  0  0  0  0  0  0  0  0  0  0
    0.8320   12.7500    0.1220 C   0  0  1  0  0  0  0  0  0  0  0  0
    0.8370   12.3290    1.6240 C   0  0  0  0  0  0  0  0  0  0  0  0
    0.1690   14.1770    0.0640 C   0  0  0  0  0  0  0  0  0  0  0  0
    0.5730   15.0830   -1.1150 C   0  0  0  0  0  0  0  0  0  0  0  0
    2.0970   15.1380   -1.2670 C   0  0  2  0  0  0  0  0  0  0  0  0
    2.6840   15.7800    0.0360 C   0  0  0  0  0  0  0  0  0  0  0  0
    3.2961   17.7421   -0.3532 H   0  0  0  0  0  0  0  0  0  0  0  0
    4.6118   17.3483   -1.5111 H   0  0  0  0  0  0  0  0  0  0  0  0
    3.8760   18.9870   -1.5111 H   0  0  0  0  0  0  0  0  0  0  0  0
    2.9149   17.8784   -3.3665 H   0  0  0  0  0  0  0  0  0  0  0  0
    0.8396   18.5214   -2.9073 H   0  0  0  0  0  0  0  0  0  0  0  0
    0.6111   17.0594   -1.8327 H   0  0  0  0  0  0  0  0  0  0  0  0
    1.1923   18.2068    0.0897 H   0  0  0  0  0  0  0  0  0  0  0  0
    2.0343   19.5194   -0.8353 H   0  0  0  0  0  0  0  0  0  0  0  0
    0.1199   20.0446   -1.7967 H   0  0  0  0  0  0  0  0  0  0  0  0
   -1.4370   18.1168    1.7258 H   0  0  0  0  0  0  0  0  0  0  0  0
   -2.3878   17.4383    0.3612 H   0  0  0  0  0  0  0  0  0  0  0  0
   -0.5964   17.3056    0.3612 H   0  0  0  0  0  0  0  0  0  0  0  0
   -3.2273   20.1562    0.3848 H   0  0  0  0  0  0  0  0  0  0  0  0
   -2.4380   20.7724   -1.1065 H   0  0  0  0  0  0  0  0  0  0  0  0
   -3.2192   19.1549   -1.1065 H   0  0  0  0  0  0  0  0  0  0  0  0
    1.9829   15.7883   -3.3500 H   0  0  0  0  0  0  0  0  0  0  0  0
    4.2915   15.1765   -3.7184 H   0  0  0  0  0  0  0  0  0  0  0  0
    4.8330   16.0390   -2.2625 H   0  0  0  0  0  0  0  0  0  0  0  0
    4.5472   13.2054   -2.5055 H   0  0  0  0  0  0  0  0  0  0  0  0
    4.7151   14.0531   -0.9704 H   0  0  0  0  0  0  0  0  0  0  0  0
    1.3460   12.2689   -2.6524 H   0  0  0  0  0  0  0  0  0  0  0  0
    1.5548   13.8466   -3.4853 H   0  0  0  0  0  0  0  0  0  0  0  0
    2.8919   12.6471   -3.4853 H   0  0  0  0  0  0  0  0  0  0  0  0
    2.9187   13.2659    0.4501 H   0  0  0  0  0  0  0  0  0  0  0  0
    3.8295   11.3916   -1.0651 H   0  0  0  0  0  0  0  0  0  0  0  0
    3.0983   11.0141    0.5821 H   0  0  0  0  0  0  0  0  0  0  0  0
    2.4527    9.3827   -1.3825 H   0  0  0  0  0  0  0  0  0  0  0  0
   -0.3019   12.3236   -1.6166 H   0  0  0  0  0  0  0  0  0  0  0  0
   -1.0685   10.7595    0.9257 H   0  0  0  0  0  0  0  0  0  0  0  0
   -1.9077   12.2262    0.2513 H   0  0  0  0  0  0  0  0  0  0  0  0
   -3.1276   10.1339   -0.2546 H   0  0  0  0  0  0  0  0  0  0  0  0
   -2.5426   10.9866   -1.7369 H   0  0  0  0  0  0  0  0  0  0  0  0
   -2.1502    8.6324   -1.9968 H   0  0  0  0  0  0  0  0  0  0  0  0
   -0.3070    8.0720   -0.1800 H   0  0  0  0  0  0  0  0  0  0  0  0
   -0.9846   11.0409   -3.2961 H   0  0  0  0  0  0  0  0  0  0  0  0
    0.4532   10.2084   -3.9791 H   0  0  0  0  0  0  0  0  0  0  0  0
   -1.1444    9.3872   -3.9791 H   0  0  0  0  0  0  0  0  0  0  0  0
    0.7937    7.6353   -1.3357 H   0  0  0  0  0  0  0  0  0  0  0  0
   -0.1242    7.4497   -2.8685 H   0  0  0  0  0  0  0  0  0  0  0  0
    1.4635    8.2899   -2.8685 H   0  0  0  0  0  0  0  0  0  0  0  0
    0.8263   13.2286    2.2570 H   0  0  0  0  0  0  0  0  0  0  0  0
   -0.0540   11.7201    1.8371 H   0  0  0  0  0  0  0  0  0  0  0  0
    1.7422   11.7414    1.8371 H   0  0  0  0  0  0  0  0  0  0  0  0
   -0.9209   14.0360    0.0171 H   0  0  0  0  0  0  0  0  0  0  0  0
    0.5280   14.6981    0.9638 H   0  0  0  0  0  0  0  0  0  0  0  0
    0.1330   14.6855   -2.0415 H   0  0  0  0  0  0  0  0  0  0  0  0
    0.2030   16.1001   -0.9187 H   0  0  0  0  0  0  0  0  0  0  0  0
    2.2394   15.2937    0.9168 H   0  0  0  0  0  0  0  0  0  0  0  0
    3.7752   15.6425    0.0530 H   0  0  0  0  0  0  0  0  0  0  0  0
    2.4496   16.8546    0.0530 H   0  0  0  0  0  0  0  0  0  0  0  0
  1  2  1  0
  2  3  1  0
  3  4  1  0
  4  5  1  0
  5  6  1  0
  6  7  1  0
  7  8  1  0
  7  9  1  0
  2 10  1  0
 10 11  1  0
 11 12  1  0
 12 13  1  0
 13 14  1  6
 13 15  1  0
 15 16  1  0
 16 17  1  0
 17 18  2  0
 18 19  1  0
 19 20  1  0
 20 21  1  0
 21 22  1  0
 22 23  1  0
 22 24  1  0
 24 25  1  0
 24 26  1  0
 19 27  1  0
 27 28  1  1
 27 29  1  0
 29 30  1  0
 30 31  1  0
 31 32  1  1
  7  5  1  0
 31 10  1  0
 31 13  1  0
 27 15  1  0
 24 18  1  0
  1 33  1  0
  1 34  1  0
  1 35  1  0
  2 36  1  6
  3 37  1  0
  3 38  1  0
  4 39  1  0
  4 40  1  0
  5 41  1  6
  8 42  1  0
  8 43  1  0
  8 44  1  0
  9 45  1  0
  9 46  1  0
  9 47  1  0
 10 48  1  6
 11 49  1  0
 11 50  1  0
 12 51  1  0
 12 52  1  0
 14 53  1  0
 14 54  1  0
 14 55  1  0
 15 56  1  1
 16 57  1  0
 16 58  1  0
 17 59  1  0
 19 60  1  6
 20 61  1  0
 20 62  1  0
 21 63  1  0
 21 64  1  0
 22 65  1  6
 23 66  1  0
 25 67  1  0
 25 68  1  0
 25 69  1  0
 26 70  1  0
 26 71  1  0
 26 72  1  0
 28 73  1  0
 28 74  1  0
 28 75  1  0
 29 76  1  0
 29 77  1  0
 30 78  1  0
 30 79  1  0
 32 80  1  0
 32 81  1  0
 32 82  1  0
M  END
>  <meeko>  (6) 
{"is_sidechain": [false], "intermolecular_energy": 2.731, "internal_energy": -0.839}

$$$$
EPH_relaxed_0001_pdb2pqr_Repair_323_r2_0001_out
     RDKit          3D

 82 86  0  0  0  0  0  0  0  0999 V2000
   -2.5590    7.5820   -3.0580 C   0  0  0  0  0  0  0  0  0  0  0  0
   -2.8820    7.8530   -1.5860 C   0  0  2  0  0  0  0  0  0  0  0  0
   -4.3980    7.8200   -1.3080 C   0  0  0  0  0  0  0  0  0  0  0  0
   -5.1130    6.6230   -1.9410 C   0  0  0  0  0  0  0  0  0  0  0  0
   -6.3200    7.0480   -2.7220 C   0  0  2  0  0  0  0  0  0  0  0  0
   -6.8950    8.2930   -2.3040 O   0  0  0  0  0  0  0  0  0  0  0  0
   -7.7150    7.1260   -2.1300 C   0  0  0  0  0  0  0  0  0  0  0  0
   -7.9760    6.7730   -0.7000 C   0  0  0  0  0  0  0  0  0  0  0  0
   -8.8890    7.0700   -3.0570 C   0  0  0  0  0  0  0  0  0  0  0  0
   -2.3050    9.2000   -1.1660 C   0  0  1  0  0  0  0  0  0  0  0  0
   -2.8230    9.6660    0.2200 C   0  0  0  0  0  0  0  0  0  0  0  0
   -1.6540   10.4220    0.9040 C   0  0  0  0  0  0  0  0  0  0  0  0
   -0.6250   10.6540   -0.2280 C   0  0  1  0  0  0  0  0  0  0  0  0
   -1.1520   11.9060   -0.9970 C   0  0  0  0  0  0  0  0  0  0  0  0
    0.8630   10.8330    0.2170 C   0  0  2  0  0  0  0  0  0  0  0  0
    1.1340   12.0570    1.1090 C   0  0  0  0  0  0  0  0  0  0  0  0
    1.4950   13.3090    0.3810 C   0  0  0  0  0  0  0  0  0  0  0  0
    1.8750   13.3830   -0.9080 C   0  0  0  0  0  0  0  0  0  0  0  0
    2.0670   12.1120   -1.7460 C   0  0  1  0  0  0  0  0  0  0  0  0
    3.4040   12.2040   -2.5280 C   0  0  0  0  0  0  0  0  0  0  0  0
    3.5060   13.4760   -3.3640 C   0  0  0  0  0  0  0  0  0  0  0  0
    3.3690   14.7180   -2.4870 C   0  0  2  0  0  0  0  0  0  0  0  0
    4.5030   14.7960   -1.6180 O   0  0  0  0  0  0  0  0  0  0  0  0
    2.0630   14.7320   -1.6450 C   0  0  0  0  0  0  0  0  0  0  0  0
    0.8450   14.9510   -2.5760 C   0  0  0  0  0  0  0  0  0  0  0  0
    2.1160   15.9640   -0.7020 C   0  0  0  0  0  0  0  0  0  0  0  0
    1.9090   10.7370   -0.9660 C   0  0  1  0  0  0  0  0  0  0  0  0
    3.2710   10.3300   -0.3240 C   0  0  0  0  0  0  0  0  0  0  0  0
    1.5460    9.6010   -1.9950 C   0  0  0  0  0  0  0  0  0  0  0  0
    0.0510    9.3940   -2.3020 C   0  0  0  0  0  0  0  0  0  0  0  0
   -0.7670    9.2980   -1.0100 C   0  0  2  0  0  0  0  0  0  0  0  0
   -0.2750    8.0340   -0.2260 C   0  0  0  0  0  0  0  0  0  0  0  0
   -1.7179    6.8763   -3.1249 H   0  0  0  0  0  0  0  0  0  0  0  0
   -3.4408    7.1495   -3.5533 H   0  0  0  0  0  0  0  0  0  0  0  0
   -2.2863    8.5256   -3.5533 H   0  0  0  0  0  0  0  0  0  0  0  0
   -2.4202    7.0496   -0.9933 H   0  0  0  0  0  0  0  0  0  0  0  0
   -4.5508    7.7801   -0.2194 H   0  0  0  0  0  0  0  0  0  0  0  0
   -4.8277    8.7268   -1.7587 H   0  0  0  0  0  0  0  0  0  0  0  0
   -4.4148    6.1071   -2.6165 H   0  0  0  0  0  0  0  0  0  0  0  0
   -5.4452    5.9551   -1.1326 H   0  0  0  0  0  0  0  0  0  0  0  0
   -5.9304    6.5669   -3.6313 H   0  0  0  0  0  0  0  0  0  0  0  0
   -7.4506    7.4837   -0.0451 H   0  0  0  0  0  0  0  0  0  0  0  0
   -9.0569    6.8218   -0.5017 H   0  0  0  0  0  0  0  0  0  0  0  0
   -7.6125    5.7539   -0.5017 H   0  0  0  0  0  0  0  0  0  0  0  0
   -9.8181    7.0257   -2.4698 H   0  0  0  0  0  0  0  0  0  0  0  0
   -8.8986    7.9687   -3.6912 H   0  0  0  0  0  0  0  0  0  0  0  0
   -8.8130    6.1745   -3.6912 H   0  0  0  0  0  0  0  0  0  0  0  0
   -2.6366    9.8148   -2.0157 H   0  0  0  0  0  0  0  0  0  0  0  0
   -3.6864   10.3362    0.0959 H   0  0  0  0  0  0  0  0  0  0  0  0
   -3.1487    8.8093    0.8282 H   0  0  0  0  0  0  0  0  0  0  0  0
   -2.0003   11.3810    1.3168 H   0  0  0  0  0  0  0  0  0  0  0  0
   -1.2278    9.8574    1.7464 H   0  0  0  0  0  0  0  0  0  0  0  0
   -1.4740   12.6710   -0.2751 H   0  0  0  0  0  0  0  0  0  0  0  0
   -0.3489   12.3131   -1.6289 H   0  0  0  0  0  0  0  0  0  0  0  0
   -2.0045   11.6162   -1.6289 H   0  0  0  0  0  0  0  0  0  0  0  0
    1.0252    9.9541    0.8583 H   0  0  0  0  0  0  0  0  0  0  0  0
    0.2265   12.2559    1.6980 H   0  0  0  0  0  0  0  0  0  0  0  0
    2.0096   11.7985    1.7226 H   0  0  0  0  0  0  0  0  0  0  0  0
    1.4463   14.2515    0.9461 H   0  0  0  0  0  0  0  0  0  0  0  0
    1.2237   12.0827   -2.4517 H   0  0  0  0  0  0  0  0  0  0  0  0
    4.2355   12.1875   -1.8081 H   0  0  0  0  0  0  0  0  0  0  0  0
    3.4479   11.3473   -3.2166 H   0  0  0  0  0  0  0  0  0  0  0  0
    4.4832   13.4977   -3.8686 H   0  0  0  0  0  0  0  0  0  0  0  0
    2.6912   13.4766   -4.1030 H   0  0  0  0  0  0  0  0  0  0  0  0
    3.3203   15.5903   -3.1554 H   0  0  0  0  0  0  0  0  0  0  0  0
    4.9900   13.9580   -1.6940 H   0  0  0  0  0  0  0  0  0  0  0  0
   -0.0570   15.1132   -1.9677 H   0  0  0  0  0  0  0  0  0  0  0  0
    1.0224   15.8317   -3.2108 H   0  0  0  0  0  0  0  0  0  0  0  0
    0.7045   14.0637   -3.2108 H   0  0  0  0  0  0  0  0  0  0  0  0
    2.1014   15.6256    0.3445 H   0  0  0  0  0  0  0  0  0  0  0  0
    3.0394   16.5311   -0.8912 H   0  0  0  0  0  0  0  0  0  0  0  0
    1.2447   16.6083   -0.8912 H   0  0  0  0  0  0  0  0  0  0  0  0
    3.1822   10.3565    0.7721 H   0  0  0  0  0  0  0  0  0  0  0  0
    3.5385    9.3127   -0.6457 H   0  0  0  0  0  0  0  0  0  0  0  0
    4.0528   11.0338   -0.6457 H   0  0  0  0  0  0  0  0  0  0  0  0
    2.0509    9.8372   -2.9433 H   0  0  0  0  0  0  0  0  0  0  0  0
    1.8743    8.6654   -1.5186 H   0  0  0  0  0  0  0  0  0  0  0  0
   -0.3150   10.2437   -2.8971 H   0  0  0  0  0  0  0  0  0  0  0  0
   -0.0650    8.4536   -2.8607 H   0  0  0  0  0  0  0  0  0  0  0  0
   -0.3481    8.2218    0.8554 H   0  0  0  0  0  0  0  0  0  0  0  0
   -0.9027    7.1706   -0.4915 H   0  0  0  0  0  0  0  0  0  0  0  0
    0.7713    7.8221   -0.4915 H   0  0  0  0  0  0  0  0  0  0  0  0
  1  2  1  0
  2  3  1  0
  3  4  1  0
  4  5  1  0
  5  6  1  0
  6  7  1  0
  7  8  1  0
  7  9  1  0
  2 10  1  0
 10 11  1  0
 11 12  1  0
 12 13  1  0
 13 14  1  6
 13 15  1  0
 15 16  1  0
 16 17  1  0
 17 18  2  0
 18 19  1  0
 19 20  1  0
 20 21  1  0
 21 22  1  0
 22 23  1  0
 22 24  1  0
 24 25  1  0
 24 26  1  0
 19 27  1  0
 27 28  1  1
 27 29  1  0
 29 30  1  0
 30 31  1  0
 31 32  1  1
  7  5  1  0
 31 10  1  0
 31 13  1  0
 27 15  1  0
 24 18  1  0
  1 33  1  0
  1 34  1  0
  1 35  1  0
  2 36  1  1
  3 37  1  0
  3 38  1  0
  4 39  1  0
  4 40  1  0
  5 41  1  6
  8 42  1  0
  8 43  1  0
  8 44  1  0
  9 45  1  0
  9 46  1  0
  9 47  1  0
 10 48  1  6
 11 49  1  0
 11 50  1  0
 12 51  1  0
 12 52  1  0
 14 53  1  0
 14 54  1  0
 14 55  1  0
 15 56  1  1
 16 57  1  0
 16 58  1  0
 17 59  1  0
 19 60  1  6
 20 61  1  0
 20 62  1  0
 21 63  1  0
 21 64  1  0
 22 65  1  6
 23 66  1  0
 25 67  1  0
 25 68  1  0
 25 69  1  0
 26 70  1  0
 26 71  1  0
 26 72  1  0
 28 73  1  0
 28 74  1  0
 28 75  1  0
 29 76  1  0
 29 77  1  0
 30 78  1  0
 30 79  1  0
 32 80  1  0
 32 81  1  0
 32 82  1  0
M  END
>  <meeko>  (7) 
{"is_sidechain": [false], "intermolecular_energy": 2.731, "internal_energy": -0.839}

$$$$
EPH_relaxed_0001_pdb2pqr_Repair_323_r2_0001_out
     RDKit          3D

 82 86  0  0  0  0  0  0  0  0999 V2000
    4.2700   17.6120   -2.6610 C   0  0  0  0  0  0  0  0  0  0  0  0
    2.9210   17.1160   -2.1340 C   0  0  2  0  0  0  0  0  0  0  0  0
    2.6930   17.5090   -0.6610 C   0  0  0  0  0  0  0  0  0  0  0  0
    3.8470   18.3110   -0.0520 C   0  0  0  0  0  0  0  0  0  0  0  0
    3.5330   18.7610    1.3430 C   0  0  2  0  0  0  0  0  0  0  0  0
    3.8540   20.1320    1.6150 O   0  0  0  0  0  0  0  0  0  0  0  0
    4.5950   19.1480    2.3550 C   0  0  0  0  0  0  0  0  0  0  0  0
    6.0520   19.1020    2.0150 C   0  0  0  0  0  0  0  0  0  0  0  0
    4.2480   19.1000    3.8100 C   0  0  0  0  0  0  0  0  0  0  0  0
    2.8280   15.6020   -2.2890 C   0  0  1  0  0  0  0  0  0  0  0  0
    4.2110   14.9400   -2.5260 C   0  0  0  0  0  0  0  0  0  0  0  0
    4.1740   13.5620   -1.8160 C   0  0  0  0  0  0  0  0  0  0  0  0
    2.6810   13.3340   -1.4830 C   0  0  1  0  0  0  0  0  0  0  0  0
    2.0500   12.8080   -2.8100 C   0  0  0  0  0  0  0  0  0  0  0  0
    2.3780   12.3800   -0.2820 C   0  0  2  0  0  0  0  0  0  0  0  0
    2.8560   10.9290   -0.4640 C   0  0  0  0  0  0  0  0  0  0  0  0
    1.8630   10.0040   -1.0860 C   0  0  0  0  0  0  0  0  0  0  0  0
    0.5460   10.2460   -1.2220 C   0  0  0  0  0  0  0  0  0  0  0  0
   -0.0850   11.5150   -0.6350 C   0  0  1  0  0  0  0  0  0  0  0  0
   -1.3870   11.1430    0.1220 C   0  0  0  0  0  0  0  0  0  0  0  0
   -2.3630   10.3530   -0.7450 C   0  0  0  0  0  0  0  0  0  0  0  0
   -1.7170    9.0700   -1.2620 C   0  0  2  0  0  0  0  0  0  0  0  0
   -1.4720    8.1980   -0.1540 O   0  0  0  0  0  0  0  0  0  0  0  0
   -0.3910    9.3190   -2.0340 C   0  0  0  0  0  0  0  0  0  0  0  0
   -0.6980   10.0040   -3.3880 C   0  0  0  0  0  0  0  0  0  0  0  0
    0.2290    7.9370   -2.3760 C   0  0  0  0  0  0  0  0  0  0  0  0
    0.8810   12.4350    0.2280 C   0  0  1  0  0  0  0  0  0  0  0  0
    0.8970   11.9480    1.7090 C   0  0  0  0  0  0  0  0  0  0  0  0
    0.3100   13.9030    0.2500 C   0  0  0  0  0  0  0  0  0  0  0  0
    0.7410   14.8330   -0.9000 C   0  0  0  0  0  0  0  0  0  0  0  0
    2.2600   14.7980   -1.0930 C   0  0  2  0  0  0  0  0  0  0  0  0
    2.9220   15.3430    0.2190 C   0  0  0  0  0  0  0  0  0  0  0  0
    4.9282   17.8540   -1.8135 H   0  0  0  0  0  0  0  0  0  0  0  0
    4.7355   16.8262   -3.2741 H   0  0  0  0  0  0  0  0  0  0  0  0
    4.1156   18.5122   -3.2741 H   0  0  0  0  0  0  0  0  0  0  0  0
    2.1341   17.6006   -2.7306 H   0  0  0  0  0  0  0  0  0  0  0  0
    1.7782   18.1169   -0.6014 H   0  0  0  0  0  0  0  0  0  0  0  0
    2.6136   16.5738   -0.0874 H   0  0  0  0  0  0  0  0  0  0  0  0
    4.7471   17.6792   -0.0288 H   0  0  0  0  0  0  0  0  0  0  0  0
    4.0090   19.2046   -0.6726 H   0  0  0  0  0  0  0  0  0  0  0  0
    2.6767   18.0728    1.3988 H   0  0  0  0  0  0  0  0  0  0  0  0
    6.6444   19.0833    2.9417 H   0  0  0  0  0  0  0  0  0  0  0  0
    6.2628   18.1967    1.4267 H   0  0  0  0  0  0  0  0  0  0  0  0
    6.3195   19.9921    1.4267 H   0  0  0  0  0  0  0  0  0  0  0  0
    5.1618   19.2264    4.4092 H   0  0  0  0  0  0  0  0  0  0  0  0
    3.5405   19.9088    4.0451 H   0  0  0  0  0  0  0  0  0  0  0  0
    3.7867   18.1295    4.0451 H   0  0  0  0  0  0  0  0  0  0  0  0
    2.1353   15.5462   -3.1417 H   0  0  0  0  0  0  0  0  0  0  0  0
    4.3875   14.8065   -3.6035 H   0  0  0  0  0  0  0  0  0  0  0  0
    5.0228   15.5674   -2.1293 H   0  0  0  0  0  0  0  0  0  0  0  0
    4.5481   12.7714   -2.4831 H   0  0  0  0  0  0  0  0  0  0  0  0
    4.8097   13.5382   -0.9186 H   0  0  0  0  0  0  0  0  0  0  0  0
    1.2244   12.1198   -2.5759 H   0  0  0  0  0  0  0  0  0  0  0  0
    1.6653   13.6566   -3.3947 H   0  0  0  0  0  0  0  0  0  0  0  0
    2.8155   12.2768   -3.3947 H   0  0  0  0  0  0  0  0  0  0  0  0
    3.0039   12.8027    0.5178 H   0  0  0  0  0  0  0  0  0  0  0  0
    3.7524   10.9438   -1.1013 H   0  0  0  0  0  0  0  0  0  0  0  0
    3.0416   10.5404    0.5482 H   0  0  0  0  0  0  0  0  0  0  0  0
    2.2398    9.0427   -1.4655 H   0  0  0  0  0  0  0  0  0  0  0  0
   -0.3233   12.1607   -1.4931 H   0  0  0  0  0  0  0  0  0  0  0  0
   -1.1230   10.5346    0.9996 H   0  0  0  0  0  0  0  0  0  0  0  0
   -1.8830   12.0805    0.4135 H   0  0  0  0  0  0  0  0  0  0  0  0
   -3.2486   10.0943   -0.1461 H   0  0  0  0  0  0  0  0  0  0  0  0
   -2.6498   10.9739   -1.6065 H   0  0  0  0  0  0  0  0  0  0  0  0
   -2.4163    8.6148   -1.9789 H   0  0  0  0  0  0  0  0  0  0  0  0
   -1.1390    8.7420    0.5800 H   0  0  0  0  0  0  0  0  0  0  0  0
   -1.1417   10.9939   -3.2058 H   0  0  0  0  0  0  0  0  0  0  0  0
    0.2344   10.1197   -3.9601 H   0  0  0  0  0  0  0  0  0  0  0  0
   -1.4048    9.3851   -3.9601 H   0  0  0  0  0  0  0  0  0  0  0  0
    0.4689    7.4023   -1.4451 H   0  0  0  0  0  0  0  0  0  0  0  0
   -0.4908    7.3472   -2.9626 H   0  0  0  0  0  0  0  0  0  0  0  0
    1.1481    8.0825   -2.9626 H   0  0  0  0  0  0  0  0  0  0  0  0
    0.8684   12.8181    2.3814 H   0  0  0  0  0  0  0  0  0  0  0  0
    0.0193   11.3117    1.8952 H   0  0  0  0  0  0  0  0  0  0  0  0
    1.8146   11.3707    1.8952 H   0  0  0  0  0  0  0  0  0  0  0  0
   -0.7876   13.8335    0.2283 H   0  0  0  0  0  0  0  0  0  0  0  0
    0.7250   14.3597    1.1606 H   0  0  0  0  0  0  0  0  0  0  0  0
    0.2525   14.5059   -1.8297 H   0  0  0  0  0  0  0  0  0  0  0  0
    0.4427   15.8618   -0.6498 H   0  0  0  0  0  0  0  0  0  0  0  0
    2.4066   14.9187    1.0933 H   0  0  0  0  0  0  0  0  0  0  0  0
    3.9828   15.0530    0.2422 H   0  0  0  0  0  0  0  0  0  0  0  0
    2.8411   16.4398    0.2422 H   0  0  0  0  0  0  0  0  0  0  0  0
  1  2  1  0
  2  3  1  0
  3  4  1  0
  4  5  1  0
  5  6  1  0
  6  7  1  0
  7  8  1  0
  7  9  1  0
  2 10  1  0
 10 11  1  0
 11 12  1  0
 12 13  1  0
 13 14  1  6
 13 15  1  0
 15 16  1  0
 16 17  1  0
 17 18  2  0
 18 19  1  0
 19 20  1  0
 20 21  1  0
 21 22  1  0
 22 23  1  0
 22 24  1  0
 24 25  1  0
 24 26  1  0
 19 27  1  0
 27 28  1  1
 27 29  1  0
 29 30  1  0
 30 31  1  0
 31 32  1  1
  7  5  1  0
 31 10  1  0
 31 13  1  0
 27 15  1  0
 24 18  1  0
  1 33  1  0
  1 34  1  0
  1 35  1  0
  2 36  1  6
  3 37  1  0
  3 38  1  0
  4 39  1  0
  4 40  1  0
  5 41  1  1
  8 42  1  0
  8 43  1  0
  8 44  1  0
  9 45  1  0
  9 46  1  0
  9 47  1  0
 10 48  1  6
 11 49  1  0
 11 50  1  0
 12 51  1  0
 12 52  1  0
 14 53  1  0
 14 54  1  0
 14 55  1  0
 15 56  1  1
 16 57  1  0
 16 58  1  0
 17 59  1  0
 19 60  1  6
 20 61  1  0
 20 62  1  0
 21 63  1  0
 21 64  1  0
 22 65  1  6
 23 66  1  0
 25 67  1  0
 25 68  1  0
 25 69  1  0
 26 70  1  0
 26 71  1  0
 26 72  1  0
 28 73  1  0
 28 74  1  0
 28 75  1  0
 29 76  1  0
 29 77  1  0
 30 78  1  0
 30 79  1  0
 32 80  1  0
 32 81  1  0
 32 82  1  0
M  END
>  <meeko>  (8) 
{"is_sidechain": [false], "intermolecular_energy": 2.731, "internal_energy": -0.839}

$$$$
EPH_relaxed_0001_pdb2pqr_Repair_323_r2_0001_out
     RDKit          3D

 82 86  0  0  0  0  0  0  0  0999 V2000
   -0.7260    7.8800   -0.3540 C   0  0  0  0  0  0  0  0  0  0  0  0
   -1.1500    9.2600    0.1560 C   0  0  2  0  0  0  0  0  0  0  0  0
   -2.4000    9.7900   -0.5730 C   0  0  0  0  0  0  0  0  0  0  0  0
   -3.7180    9.2770    0.0120 C   0  0  0  0  0  0  0  0  0  0  0  0
   -4.0800    7.9290   -0.5350 C   0  0  2  0  0  0  0  0  0  0  0  0
   -4.1750    7.8690   -1.9640 O   0  0  0  0  0  0  0  0  0  0  0  0
   -5.3920    7.6360   -1.2370 C   0  0  0  0  0  0  0  0  0  0  0  0
   -6.4290    8.6980   -1.4300 C   0  0  0  0  0  0  0  0  0  0  0  0
   -5.8700    6.2180   -1.3000 C   0  0  0  0  0  0  0  0  0  0  0  0
    0.0010   10.2470    0.0010 C   0  0  1  0  0  0  0  0  0  0  0  0
    1.3890    9.5530    0.0090 C   0  0  0  0  0  0  0  0  0  0  0  0
    2.2940   10.3490   -0.9660 C   0  0  0  0  0  0  0  0  0  0  0  0
    1.5120   11.6540   -1.2450 C   0  0  1  0  0  0  0  0  0  0  0  0
    1.8130   12.5710   -0.0180 C   0  0  0  0  0  0  0  0  0  0  0  0
    1.8300   12.3740   -2.5960 C   0  0  2  0  0  0  0  0  0  0  0  0
    3.2790   12.8690   -2.7470 C   0  0  0  0  0  0  0  0  0  0  0  0
    3.5310   14.2610   -2.2690 C   0  0  0  0  0  0  0  0  0  0  0  0
    2.5840   15.1800   -2.0050 C   0  0  0  0  0  0  0  0  0  0  0  0
    1.1030   14.8870   -2.2760 C   0  0  1  0  0  0  0  0  0  0  0  0
    0.4620   16.0930   -3.0110 C   0  0  0  0  0  0  0  0  0  0  0  0
    0.6700   17.4090   -2.2670 C   0  0  0  0  0  0  0  0  0  0  0  0
    2.1560   17.6940   -2.0670 C   0  0  2  0  0  0  0  0  0  0  0  0
    2.7540   17.9340   -3.3450 O   0  0  0  0  0  0  0  0  0  0  0  0
    2.9100   16.5430   -1.3450 C   0  0  0  0  0  0  0  0  0  0  0  0
    2.4690   16.4820    0.1380 C   0  0  0  0  0  0  0  0  0  0  0  0
    4.4220   16.8950   -1.3340 C   0  0  0  0  0  0  0  0  0  0  0  0
    0.7910   13.5010   -2.9890 C   0  0  1  0  0  0  0  0  0  0  0  0
    0.8790   13.6680   -4.5370 C   0  0  0  0  0  0  0  0  0  0  0  0
   -0.6940   13.0830   -2.6720 C   0  0  0  0  0  0  0  0  0  0  0  0
   -0.9270   12.2710   -1.3840 C   0  0  0  0  0  0  0  0  0  0  0  0
    0.0450   11.0900   -1.2980 C   0  0  2  0  0  0  0  0  0  0  0  0
   -0.2480   10.1390   -2.5070 C   0  0  0  0  0  0  0  0  0  0  0  0
   -0.5230    7.2193    0.5017 H   0  0  0  0  0  0  0  0  0  0  0  0
   -1.5337    7.4508   -0.9651 H   0  0  0  0  0  0  0  0  0  0  0  0
    0.1833    7.9784   -0.9651 H   0  0  0  0  0  0  0  0  0  0  0  0
   -1.4089    9.1543    1.2199 H   0  0  0  0  0  0  0  0  0  0  0  0
   -2.3975   10.8883   -0.5126 H   0  0  0  0  0  0  0  0  0  0  0  0
   -2.3456    9.4262   -1.6097 H   0  0  0  0  0  0  0  0  0  0  0  0
   -3.6181    9.2031    1.1050 H   0  0  0  0  0  0  0  0  0  0  0  0
   -4.5140    9.9842   -0.2642 H   0  0  0  0  0  0  0  0  0  0  0  0
   -3.5583    7.4268    0.2930 H   0  0  0  0  0  0  0  0  0  0  0  0
   -6.7764    9.0538   -0.4488 H   0  0  0  0  0  0  0  0  0  0  0  0
   -5.9937    9.5378   -1.9915 H   0  0  0  0  0  0  0  0  0  0  0  0
   -7.2789    8.2828   -1.9915 H   0  0  0  0  0  0  0  0  0  0  0  0
   -6.0010    5.8295   -0.2792 H   0  0  0  0  0  0  0  0  0  0  0  0
   -6.8311    6.1784   -1.8335 H   0  0  0  0  0  0  0  0  0  0  0  0
   -5.1290    5.6046   -1.8335 H   0  0  0  0  0  0  0  0  0  0  0  0
   -0.1971   10.8976    0.8655 H   0  0  0  0  0  0  0  0  0  0  0  0
    1.8159    9.5719    1.0226 H   0  0  0  0  0  0  0  0  0  0  0  0
    1.3057    8.5007   -0.3003 H   0  0  0  0  0  0  0  0  0  0  0  0
    3.2659   10.5704   -0.5009 H   0  0  0  0  0  0  0  0  0  0  0  0
    2.5114    9.7875   -1.8866 H   0  0  0  0  0  0  0  0  0  0  0  0
    1.6295   12.0119    0.9114 H   0  0  0  0  0  0  0  0  0  0  0  0
    2.8642   12.8935   -0.0504 H   0  0  0  0  0  0  0  0  0  0  0  0
    1.1575   13.4537   -0.0504 H   0  0  0  0  0  0  0  0  0  0  0  0
    1.7142   11.5620   -3.3289 H   0  0  0  0  0  0  0  0  0  0  0  0
    3.9309   12.1907   -2.1770 H   0  0  0  0  0  0  0  0  0  0  0  0
    3.4870   12.8760   -3.8271 H   0  0  0  0  0  0  0  0  0  0  0  0
    4.5789   14.5605   -2.1201 H   0  0  0  0  0  0  0  0  0  0  0  0
    0.6323   14.7592   -1.2900 H   0  0  0  0  0  0  0  0  0  0  0  0
    0.9138   16.1776   -4.0104 H   0  0  0  0  0  0  0  0  0  0  0  0
   -0.6211   15.9106   -3.0707 H   0  0  0  0  0  0  0  0  0  0  0  0
    0.2220   18.2269   -2.8503 H   0  0  0  0  0  0  0  0  0  0  0  0
    0.1912   17.3334   -1.2796 H   0  0  0  0  0  0  0  0  0  0  0  0
    2.2381   18.5774   -1.4167 H   0  0  0  0  0  0  0  0  0  0  0  0
    3.2620   17.1410   -3.5850 H   0  0  0  0  0  0  0  0  0  0  0  0
    3.3485   16.6037    0.7874 H   0  0  0  0  0  0  0  0  0  0  0  0
    1.7495   17.2892    0.3401 H   0  0  0  0  0  0  0  0  0  0  0  0
    1.9957   15.5098    0.3401 H   0  0  0  0  0  0  0  0  0  0  0  0
    4.7719   16.9765   -0.2943 H   0  0  0  0  0  0  0  0  0  0  0  0
    4.9863   16.1042   -1.8499 H   0  0  0  0  0  0  0  0  0  0  0  0
    4.5790   17.8537   -1.8499 H   0  0  0  0  0  0  0  0  0  0  0  0
    1.3796   14.6180   -4.7754 H   0  0  0  0  0  0  0  0  0  0  0  0
    1.4543   12.8332   -4.9637 H   0  0  0  0  0  0  0  0  0  0  0  0
   -0.1348   13.6706   -4.9637 H   0  0  0  0  0  0  0  0  0  0  0  0
   -1.2903   14.0043   -2.5970 H   0  0  0  0  0  0  0  0  0  0  0  0
   -0.9853   12.4109   -3.4926 H   0  0  0  0  0  0  0  0  0  0  0  0
   -0.7757   12.9259   -0.5132 H   0  0  0  0  0  0  0  0  0  0  0  0
   -1.9549   11.8795   -1.3969 H   0  0  0  0  0  0  0  0  0  0  0  0
   -0.5524    9.1511   -2.1310 H   0  0  0  0  0  0  0  0  0  0  0  0
   -1.0571   10.5634   -3.1196 H   0  0  0  0  0  0  0  0  0  0  0  0
    0.6596   10.0345   -3.1196 H   0  0  0  0  0  0  0  0  0  0  0  0
  1  2  1  0
  2  3  1  0
  3  4  1  0
  4  5  1  0
  5  6  1  0
  6  7  1  0
  7  8  1  0
  7  9  1  0
  2 10  1  0
 10 11  1  0
 11 12  1  0
 12 13  1  0
 13 14  1  1
 13 15  1  0
 15 16  1  0
 16 17  1  0
 17 18  2  0
 18 19  1  0
 19 20  1  0
 20 21  1  0
 21 22  1  0
 22 23  1  0
 22 24  1  0
 24 25  1  0
 24 26  1  0
 19 27  1  0
 27 28  1  6
 27 29  1  0
 29 30  1  0
 30 31  1  0
 31 32  1  6
  7  5  1  0
 31 10  1  0
 31 13  1  0
 27 15  1  0
 24 18  1  0
  1 33  1  0
  1 34  1  0
  1 35  1  0
  2 36  1  1
  3 37  1  0
  3 38  1  0
  4 39  1  0
  4 40  1  0
  5 41  1  1
  8 42  1  0
  8 43  1  0
  8 44  1  0
  9 45  1  0
  9 46  1  0
  9 47  1  0
 10 48  1  1
 11 49  1  0
 11 50  1  0
 12 51  1  0
 12 52  1  0
 14 53  1  0
 14 54  1  0
 14 55  1  0
 15 56  1  6
 16 57  1  0
 16 58  1  0
 17 59  1  0
 19 60  1  1
 20 61  1  0
 20 62  1  0
 21 63  1  0
 21 64  1  0
 22 65  1  1
 23 66  1  0
 25 67  1  0
 25 68  1  0
 25 69  1  0
 26 70  1  0
 26 71  1  0
 26 72  1  0
 28 73  1  0
 28 74  1  0
 28 75  1  0
 29 76  1  0
 29 77  1  0
 30 78  1  0
 30 79  1  0
 32 80  1  0
 32 81  1  0
 32 82  1  0
M  END
>  <meeko>  (9) 
{"is_sidechain": [false], "intermolecular_energy": 2.731, "internal_energy": -0.839}

$$$$
EPH_relaxed_0001_pdb2pqr_Repair_323_r2_0001_out
     RDKit          3D

 82 86  0  0  0  0  0  0  0  0999 V2000
    2.1720   19.2930    0.0160 C   0  0  0  0  0  0  0  0  0  0  0  0
    2.8360   17.9390   -0.2510 C   0  0  2  0  0  0  0  0  0  0  0  0
    3.6550   17.9420   -1.5580 C   0  0  0  0  0  0  0  0  0  0  0  0
    5.1120   17.5110   -1.3710 C   0  0  0  0  0  0  0  0  0  0  0  0
    5.9380   17.8080   -2.5860 C   0  0  2  0  0  0  0  0  0  0  0  0
    5.2580   17.6150   -3.8340 O   0  0  0  0  0  0  0  0  0  0  0  0
    6.3760   16.7480   -3.5800 C   0  0  0  0  0  0  0  0  0  0  0  0
    6.0020   15.3100   -3.4010 C   0  0  0  0  0  0  0  0  0  0  0  0
    7.5640   17.0270   -4.4460 C   0  0  0  0  0  0  0  0  0  0  0  0
    1.7780   16.8430   -0.3020 C   0  0  1  0  0  0  0  0  0  0  0  0
    0.3830   17.3780   -0.7220 C   0  0  0  0  0  0  0  0  0  0  0  0
   -0.2900   16.2610   -1.5610 C   0  0  0  0  0  0  0  0  0  0  0  0
    0.5870   15.0100   -1.3210 C   0  0  1  0  0  0  0  0  0  0  0  0
    0.1070   14.4410    0.0510 C   0  0  0  0  0  0  0  0  0  0  0  0
    0.5560   13.9190   -2.4410 C   0  0  2  0  0  0  0  0  0  0  0  0
   -0.8170   13.2670   -2.6790 C   0  0  0  0  0  0  0  0  0  0  0  0
   -1.0900   12.0430   -1.8690 C   0  0  0  0  0  0  0  0  0  0  0  0
   -0.1680   11.3260   -1.2000 C   0  0  0  0  0  0  0  0  0  0  0  0
    1.3230   11.6730   -1.2980 C   0  0  1  0  0  0  0  0  0  0  0  0
    2.1410   10.3780   -1.5390 C   0  0  0  0  0  0  0  0  0  0  0  0
    1.8600    9.3040   -0.4930 C   0  0  0  0  0  0  0  0  0  0  0  0
    0.3770    8.9440   -0.4660 C   0  0  2  0  0  0  0  0  0  0  0  0
    0.0350    8.3060   -1.7000 O   0  0  0  0  0  0  0  0  0  0  0  0
   -0.5480   10.1730   -0.2390 C   0  0  0  0  0  0  0  0  0  0  0  0
   -0.3910   10.6800    1.2160 C   0  0  0  0  0  0  0  0  0  0  0  0
   -2.0190    9.6950   -0.3750 C   0  0  0  0  0  0  0  0  0  0  0  0
    1.6990   12.8320   -2.3180 C   0  0  1  0  0  0  0  0  0  0  0  0
    1.9050   12.2380   -3.7450 C   0  0  0  0  0  0  0  0  0  0  0  0
    3.0800   13.4600   -1.8960 C   0  0  0  0  0  0  0  0  0  0  0  0
    3.0350   14.6140   -0.8760 C   0  0  0  0  0  0  0  0  0  0  0  0
    2.0120   15.6750   -1.2930 C   0  0  2  0  0  0  0  0  0  0  0  0
    2.4800   16.2810   -2.6600 C   0  0  0  0  0  0  0  0  0  0  0  0
    2.0926   19.4548    1.1011 H   0  0  0  0  0  0  0  0  0  0  0  0
    2.7796   20.0938   -0.4307 H   0  0  0  0  0  0  0  0  0  0  0  0
    1.1668   19.3029   -0.4307 H   0  0  0  0  0  0  0  0  0  0  0  0
    3.5345   17.7435    0.5760 H   0  0  0  0  0  0  0  0  0  0  0  0
    3.1771   17.2521   -2.2691 H   0  0  0  0  0  0  0  0  0  0  0  0
    3.6706   18.9786   -1.9257 H   0  0  0  0  0  0  0  0  0  0  0  0
    5.5358   18.0505   -0.5112 H   0  0  0  0  0  0  0  0  0  0  0  0
    5.1292   16.4242   -1.2018 H   0  0  0  0  0  0  0  0  0  0  0  0
    6.4950   18.5877   -2.0458 H   0  0  0  0  0  0  0  0  0  0  0  0
    5.9416   15.0777   -2.3275 H   0  0  0  0  0  0  0  0  0  0  0  0
    5.0255   15.1237   -3.8720 H   0  0  0  0  0  0  0  0  0  0  0  0
    6.7640   14.6716   -3.8720 H   0  0  0  0  0  0  0  0  0  0  0  0
    8.4394   17.2326   -3.8124 H   0  0  0  0  0  0  0  0  0  0  0  0
    7.7683   16.1524   -5.0811 H   0  0  0  0  0  0  0  0  0  0  0  0
    7.3576   17.9011   -5.0811 H   0  0  0  0  0  0  0  0  0  0  0  0
    1.8414   16.4769    0.7333 H   0  0  0  0  0  0  0  0  0  0  0  0
   -0.2222   17.5989    0.1696 H   0  0  0  0  0  0  0  0  0  0  0  0
    0.4748   18.3076   -1.3029 H   0  0  0  0  0  0  0  0  0  0  0  0
   -1.3200   16.0847   -1.2176 H   0  0  0  0  0  0  0  0  0  0  0  0
   -0.3584   16.5240   -2.6269 H   0  0  0  0  0  0  0  0  0  0  0  0
    0.5820   15.0041    0.8679 H   0  0  0  0  0  0  0  0  0  0  0  0
   -0.9861   14.5381    0.1260 H   0  0  0  0  0  0  0  0  0  0  0  0
    0.3869   13.3798    0.1260 H   0  0  0  0  0  0  0  0  0  0  0  0
    0.7689   14.5049   -3.3473 H   0  0  0  0  0  0  0  0  0  0  0  0
   -1.5922   14.0109   -2.4429 H   0  0  0  0  0  0  0  0  0  0  0  0
   -0.8226   12.9439   -3.7305 H   0  0  0  0  0  0  0  0  0  0  0  0
   -2.1330   11.6979   -1.8143 H   0  0  0  0  0  0  0  0  0  0  0  0
    1.5979   12.1122   -0.3277 H   0  0  0  0  0  0  0  0  0  0  0  0
    1.8847    9.9789   -2.5315 H   0  0  0  0  0  0  0  0  0  0  0  0
    3.2072   10.6396   -1.4701 H   0  0  0  0  0  0  0  0  0  0  0  0
    2.4446    8.4041   -0.7349 H   0  0  0  0  0  0  0  0  0  0  0  0
    2.1449    9.6934    0.4955 H   0  0  0  0  0  0  0  0  0  0  0  0
    0.2169    8.2692    0.3878 H   0  0  0  0  0  0  0  0  0  0  0  0
   -0.8750    7.9740   -1.6180 H   0  0  0  0  0  0  0  0  0  0  0  0
   -0.6420    9.8693    1.9159 H   0  0  0  0  0  0  0  0  0  0  0  0
    0.6482   10.9997    1.3828 H   0  0  0  0  0  0  0  0  0  0  0  0
   -1.0677   11.5311    1.3828 H   0  0  0  0  0  0  0  0  0  0  0  0
   -2.4528    9.5540    0.6260 H   0  0  0  0  0  0  0  0  0  0  0  0
   -2.6007   10.4503   -0.9237 H   0  0  0  0  0  0  0  0  0  0  0  0
   -2.0456    8.7420   -0.9237 H   0  0  0  0  0  0  0  0  0  0  0  0
    2.2644   11.2017   -3.6624 H   0  0  0  0  0  0  0  0  0  0  0  0
    0.9494   12.2524   -4.2896 H   0  0  0  0  0  0  0  0  0  0  0  0
    2.6465   12.8409   -4.2896 H   0  0  0  0  0  0  0  0  0  0  0  0
    3.6927   12.6560   -1.4622 H   0  0  0  0  0  0  0  0  0  0  0  0
    3.4876   13.9044   -2.8160 H   0  0  0  0  0  0  0  0  0  0  0  0
    2.7558   14.2126    0.1093 H   0  0  0  0  0  0  0  0  0  0  0  0
    4.0290   15.0831   -0.8332 H   0  0  0  0  0  0  0  0  0  0  0  0
    3.1426   17.1389   -2.4731 H   0  0  0  0  0  0  0  0  0  0  0  0
    3.0238   15.5158   -3.2333 H   0  0  0  0  0  0  0  0  0  0  0  0
    1.6022   16.6137   -3.2333 H   0  0  0  0  0  0  0  0  0  0  0  0
  1  2  1  0
  2  3  1  0
  3  4  1  0
  4  5  1  0
  5  6  1  0
  6  7  1  0
  7  8  1  0
  7  9  1  0
  2 10  1  0
 10 11  1  0
 11 12  1  0
 12 13  1  0
 13 14  1  1
 13 15  1  0
 15 16  1  0
 16 17  1  0
 17 18  2  0
 18 19  1  0
 19 20  1  0
 20 21  1  0
 21 22  1  0
 22 23  1  0
 22 24  1  0
 24 25  1  0
 24 26  1  0
 19 27  1  0
 27 28  1  6
 27 29  1  0
 29 30  1  0
 30 31  1  0
 31 32  1  6
  7  5  1  0
 31 10  1  0
 31 13  1  0
 27 15  1  0
 24 18  1  0
  1 33  1  0
  1 34  1  0
  1 35  1  0
  2 36  1  1
  3 37  1  0
  3 38  1  0
  4 39  1  0
  4 40  1  0
  5 41  1  1
  8 42  1  0
  8 43  1  0
  8 44  1  0
  9 45  1  0
  9 46  1  0
  9 47  1  0
 10 48  1  1
 11 49  1  0
 11 50  1  0
 12 51  1  0
 12 52  1  0
 14 53  1  0
 14 54  1  0
 14 55  1  0
 15 56  1  6
 16 57  1  0
 16 58  1  0
 17 59  1  0
 19 60  1  1
 20 61  1  0
 20 62  1  0
 21 63  1  0
 21 64  1  0
 22 65  1  1
 23 66  1  0
 25 67  1  0
 25 68  1  0
 25 69  1  0
 26 70  1  0
 26 71  1  0
 26 72  1  0
 28 73  1  0
 28 74  1  0
 28 75  1  0
 29 76  1  0
 29 77  1  0
 30 78  1  0
 30 79  1  0
 32 80  1  0
 32 81  1  0
 32 82  1  0
M  END
>  <meeko>  (10) 
{"is_sidechain": [false], "intermolecular_energy": 2.731, "internal_energy": -0.839}

$$$$
EPH_relaxed_0001_pdb2pqr_Repair_323_r2_0001_out
     RDKit          3D

 82 86  0  0  0  0  0  0  0  0999 V2000
    0.4410    8.9670   -2.5040 C   0  0  0  0  0  0  0  0  0  0  0  0
    1.2110   10.1270   -3.1410 C   0  0  2  0  0  0  0  0  0  0  0  0
    2.7020   10.1190   -2.7500 C   0  0  0  0  0  0  0  0  0  0  0  0
    3.6360   10.5730   -3.8750 C   0  0  0  0  0  0  0  0  0  0  0  0
    5.0200   10.8500   -3.3700 C   0  0  2  0  0  0  0  0  0  0  0  0
    5.6010   12.0690   -3.8530 O   0  0  0  0  0  0  0  0  0  0  0  0
    6.2500   10.8530   -4.2580 C   0  0  0  0  0  0  0  0  0  0  0  0
    6.1540   10.5720   -5.7250 C   0  0  0  0  0  0  0  0  0  0  0  0
    7.5900   10.6450   -3.6250 C   0  0  0  0  0  0  0  0  0  0  0  0
    0.5750   11.4540   -2.7420 C   0  0  1  0  0  0  0  0  0  0  0  0
   -0.6910   11.2700   -1.8650 C   0  0  0  0  0  0  0  0  0  0  0  0
   -0.7130   12.4480   -0.8570 C   0  0  0  0  0  0  0  0  0  0  0  0
    0.3430   13.4410   -1.3960 C   0  0  1  0  0  0  0  0  0  0  0  0
   -0.3890   14.2300   -2.5270 C   0  0  0  0  0  0  0  0  0  0  0  0
    0.9870   14.4030   -0.3450 C   0  0  2  0  0  0  0  0  0  0  0  0
    0.0060   15.3690    0.3420 C   0  0  0  0  0  0  0  0  0  0  0  0
   -0.1730   16.6860   -0.3370 C   0  0  0  0  0  0  0  0  0  0  0  0
    0.6340   17.1910   -1.2890 C   0  0  0  0  0  0  0  0  0  0  0  0
    1.9170   16.4590   -1.7040 C   0  0  1  0  0  0  0  0  0  0  0  0
    3.0920   17.4700   -1.7710 C   0  0  0  0  0  0  0  0  0  0  0  0
    2.7850   18.6640   -2.6690 C   0  0  0  0  0  0  0  0  0  0  0  0
    1.5370   19.4010   -2.1900 C   0  0  2  0  0  0  0  0  0  0  0  0
    1.8140   19.9990   -0.9190 O   0  0  0  0  0  0  0  0  0  0  0  0
    0.2900   18.4810   -2.0740 C   0  0  0  0  0  0  0  0  0  0  0  0
   -0.1910   18.0750   -3.4890 C   0  0  0  0  0  0  0  0  0  0  0  0
   -0.8610   19.3140   -1.4470 C   0  0  0  0  0  0  0  0  0  0  0  0
    2.2760   15.1590   -0.8630 C   0  0  1  0  0  0  0  0  0  0  0  0
    3.0990   15.5550    0.4020 C   0  0  0  0  0  0  0  0  0  0  0  0
    3.2090   14.2300   -1.7260 C   0  0  0  0  0  0  0  0  0  0  0  0
    2.5130   13.2190   -2.6570 C   0  0  0  0  0  0  0  0  0  0  0  0
    1.4360   12.4320   -1.9040 C   0  0  2  0  0  0  0  0  0  0  0  0
    2.1460   11.6110   -0.7740 C   0  0  0  0  0  0  0  0  0  0  0  0
    0.4952    9.0487   -1.4084 H   0  0  0  0  0  0  0  0  0  0  0  0
   -0.6110    9.0062   -2.8230 H   0  0  0  0  0  0  0  0  0  0  0  0
    0.8856    8.0127   -2.8230 H   0  0  0  0  0  0  0  0  0  0  0  0
    1.1557   10.0010   -4.2324 H   0  0  0  0  0  0  0  0  0  0  0  0
    2.8394   10.7928   -1.8914 H   0  0  0  0  0  0  0  0  0  0  0  0
    2.9665    9.0779   -2.5132 H   0  0  0  0  0  0  0  0  0  0  0  0
    3.6866    9.7816   -4.6373 H   0  0  0  0  0  0  0  0  0  0  0  0
    3.2334   11.5046   -4.2994 H   0  0  0  0  0  0  0  0  0  0  0  0
    4.7987   10.3455   -2.4179 H   0  0  0  0  0  0  0  0  0  0  0  0
    5.8019    9.5413   -5.8786 H   0  0  0  0  0  0  0  0  0  0  0  0
    5.4449   11.2745   -6.1873 H   0  0  0  0  0  0  0  0  0  0  0  0
    7.1447   10.6937   -6.1873 H   0  0  0  0  0  0  0  0  0  0  0  0
    7.4848   10.6613   -2.5302 H   0  0  0  0  0  0  0  0  0  0  0  0
    7.9973    9.6729   -3.9398 H   0  0  0  0  0  0  0  0  0  0  0  0
    8.2728   11.4479   -3.9398 H   0  0  0  0  0  0  0  0  0  0  0  0
    0.3898   11.8768   -3.7405 H   0  0  0  0  0  0  0  0  0  0  0  0
   -1.5935   11.2925   -2.4934 H   0  0  0  0  0  0  0  0  0  0  0  0
   -0.6712   10.3028   -1.3413 H   0  0  0  0  0  0  0  0  0  0  0  0
   -1.7079   12.9164   -0.8285 H   0  0  0  0  0  0  0  0  0  0  0  0
   -0.4939   12.1224    0.1706 H   0  0  0  0  0  0  0  0  0  0  0  0
   -1.0719   14.9661   -2.0777 H   0  0  0  0  0  0  0  0  0  0  0  0
    0.3530   14.7508   -3.1501 H   0  0  0  0  0  0  0  0  0  0  0  0
   -0.9638   13.5291   -3.1501 H   0  0  0  0  0  0  0  0  0  0  0  0
    1.3195   13.7073    0.4395 H   0  0  0  0  0  0  0  0  0  0  0  0
   -0.9763   14.8766    0.3928 H   0  0  0  0  0  0  0  0  0  0  0  0
    0.4390   15.5917    1.3284 H   0  0  0  0  0  0  0  0  0  0  0  0
   -1.0372   17.2955   -0.0341 H   0  0  0  0  0  0  0  0  0  0  0  0
    1.7224   16.0476   -2.7054 H   0  0  0  0  0  0  0  0  0  0  0  0
    3.2999   17.8370   -0.7551 H   0  0  0  0  0  0  0  0  0  0  0  0
    3.9600   16.9457   -2.1973 H   0  0  0  0  0  0  0  0  0  0  0  0
    3.6400   19.3559   -2.6527 H   0  0  0  0  0  0  0  0  0  0  0  0
    2.6057   18.2977   -3.6906 H   0  0  0  0  0  0  0  0  0  0  0  0
    1.2946   20.1646   -2.9437 H   0  0  0  0  0  0  0  0  0  0  0  0
    1.5680   19.3560   -0.2320 H   0  0  0  0  0  0  0  0  0  0  0  0
   -1.0290   17.3677   -3.4025 H   0  0  0  0  0  0  0  0  0  0  0  0
   -0.5221   18.9708   -4.0348 H   0  0  0  0  0  0  0  0  0  0  0  0
    0.6365   17.5981   -4.0348 H   0  0  0  0  0  0  0  0  0  0  0  0
   -0.7936   19.2652   -0.3502 H   0  0  0  0  0  0  0  0  0  0  0  0
   -0.7758   20.3610   -1.7734 H   0  0  0  0  0  0  0  0  0  0  0  0
   -1.8289   18.9058   -1.7734 H   0  0  0  0  0  0  0  0  0  0  0  0
    2.5347   15.2835    1.3064 H   0  0  0  0  0  0  0  0  0  0  0  0
    4.0607   15.0210    0.3957 H   0  0  0  0  0  0  0  0  0  0  0  0
    3.2818   16.6397    0.3957 H   0  0  0  0  0  0  0  0  0  0  0  0
    3.8388   14.8797   -2.3516 H   0  0  0  0  0  0  0  0  0  0  0  0
    3.7598   13.6179   -0.9967 H   0  0  0  0  0  0  0  0  0  0  0  0
    2.0449   13.7615   -3.4916 H   0  0  0  0  0  0  0  0  0  0  0  0
    3.2667   12.5112   -3.0324 H   0  0  0  0  0  0  0  0  0  0  0  0
    1.8229   11.9846    0.2089 H   0  0  0  0  0  0  0  0  0  0  0  0
    1.8774   10.5485   -0.8688 H   0  0  0  0  0  0  0  0  0  0  0  0
    3.2361   11.7235   -0.8688 H   0  0  0  0  0  0  0  0  0  0  0  0
  1  2  1  0
  2  3  1  0
  3  4  1  0
  4  5  1  0
  5  6  1  0
  6  7  1  0
  7  8  1  0
  7  9  1  0
  2 10  1  0
 10 11  1  0
 11 12  1  0
 12 13  1  0
 13 14  1  6
 13 15  1  0
 15 16  1  0
 16 17  1  0
 17 18  2  0
 18 19  1  0
 19 20  1  0
 20 21  1  0
 21 22  1  0
 22 23  1  0
 22 24  1  0
 24 25  1  0
 24 26  1  0
 19 27  1  0
 27 28  1  1
 27 29  1  0
 29 30  1  0
 30 31  1  0
 31 32  1  1
  7  5  1  0
 31 10  1  0
 31 13  1  0
 27 15  1  0
 24 18  1  0
  1 33  1  0
  1 34  1  0
  1 35  1  0
  2 36  1  6
  3 37  1  0
  3 38  1  0
  4 39  1  0
  4 40  1  0
  5 41  1  1
  8 42  1  0
  8 43  1  0
  8 44  1  0
  9 45  1  0
  9 46  1  0
  9 47  1  0
 10 48  1  6
 11 49  1  0
 11 50  1  0
 12 51  1  0
 12 52  1  0
 14 53  1  0
 14 54  1  0
 14 55  1  0
 15 56  1  1
 16 57  1  0
 16 58  1  0
 17 59  1  0
 19 60  1  6
 20 61  1  0
 20 62  1  0
 21 63  1  0
 21 64  1  0
 22 65  1  6
 23 66  1  0
 25 67  1  0
 25 68  1  0
 25 69  1  0
 26 70  1  0
 26 71  1  0
 26 72  1  0
 28 73  1  0
 28 74  1  0
 28 75  1  0
 29 76  1  0
 29 77  1  0
 30 78  1  0
 30 79  1  0
 32 80  1  0
 32 81  1  0
 32 82  1  0
M  END
>  <meeko>  (11) 
{"is_sidechain": [false], "intermolecular_energy": 2.731, "internal_energy": -0.839}

$$$$
EPH_relaxed_0001_pdb2pqr_Repair_323_r2_0001_out
     RDKit          3D

 82 86  0  0  0  0  0  0  0  0999 V2000
    0.8940    8.7450   -0.2330 C   0  0  0  0  0  0  0  0  0  0  0  0
   -0.1640    9.4820   -1.0580 C   0  0  2  0  0  0  0  0  0  0  0  0
   -0.8450    8.5590   -2.0880 C   0  0  0  0  0  0  0  0  0  0  0  0
   -2.3480    8.3830   -1.8580 C   0  0  0  0  0  0  0  0  0  0  0  0
   -2.8920    7.2130   -2.6190 C   0  0  2  0  0  0  0  0  0  0  0  0
   -3.9140    7.5390   -3.5700 O   0  0  0  0  0  0  0  0  0  0  0  0
   -4.3140    6.7060   -2.4700 C   0  0  0  0  0  0  0  0  0  0  0  0
   -5.2810    7.3580   -1.5320 C   0  0  0  0  0  0  0  0  0  0  0  0
   -4.6150    5.2930   -2.8630 C   0  0  0  0  0  0  0  0  0  0  0  0
    0.4680   10.6760   -1.7650 C   0  0  1  0  0  0  0  0  0  0  0  0
    0.1030   10.7390   -3.2720 C   0  0  0  0  0  0  0  0  0  0  0  0
   -0.0160   12.2400   -3.6410 C   0  0  0  0  0  0  0  0  0  0  0  0
    0.6040   12.9880   -2.4370 C   0  0  1  0  0  0  0  0  0  0  0  0
    2.1450   12.9210   -2.6730 C   0  0  0  0  0  0  0  0  0  0  0  0
    0.1170   14.4560   -2.2110 C   0  0  2  0  0  0  0  0  0  0  0  0
    0.4400   15.4340   -3.3540 C   0  0  0  0  0  0  0  0  0  0  0  0
    1.7470   16.1460   -3.2340 C   0  0  0  0  0  0  0  0  0  0  0  0
    2.4950   16.2250   -2.1180 C   0  0  0  0  0  0  0  0  0  0  0  0
    1.9940   15.6410   -0.7910 C   0  0  1  0  0  0  0  0  0  0  0  0
    2.2210   16.6700    0.3470 C   0  0  0  0  0  0  0  0  0  0  0  0
    3.6690   17.1430    0.4280 C   0  0  0  0  0  0  0  0  0  0  0  0
    4.1120   17.7710   -0.8910 C   0  0  2  0  0  0  0  0  0  0  0  0
    3.3760   18.9800   -1.0960 O   0  0  0  0  0  0  0  0  0  0  0  0
    3.9210   16.8290   -2.1130 C   0  0  0  0  0  0  0  0  0  0  0  0
    4.9410   15.6660   -2.0380 C   0  0  0  0  0  0  0  0  0  0  0  0
    4.2720   17.6320   -3.3940 C   0  0  0  0  0  0  0  0  0  0  0  0
    0.5140   15.0610   -0.8040 C   0  0  1  0  0  0  0  0  0  0  0  0
   -0.5070   16.2020   -0.5060 C   0  0  0  0  0  0  0  0  0  0  0  0
    0.3620   14.0140    0.3620 C   0  0  0  0  0  0  0  0  0  0  0  0
    0.7460   12.5570    0.0410 C   0  0  0  0  0  0  0  0  0  0  0  0
    0.0830   12.0880   -1.2580 C   0  0  2  0  0  0  0  0  0  0  0  0
   -1.4690   12.1230   -1.0420 C   0  0  0  0  0  0  0  0  0  0  0  0
    0.6888    8.8880    0.8382 H   0  0  0  0  0  0  0  0  0  0  0  0
    0.8634    7.6718   -0.4722 H   0  0  0  0  0  0  0  0  0  0  0  0
    1.8901    9.1457   -0.4722 H   0  0  0  0  0  0  0  0  0  0  0  0
   -0.9423    9.8303   -0.3630 H   0  0  0  0  0  0  0  0  0  0  0  0
   -0.6949    8.9867   -3.0902 H   0  0  0  0  0  0  0  0  0  0  0  0
   -0.3853    7.5653   -1.9824 H   0  0  0  0  0  0  0  0  0  0  0  0
   -2.5282    8.2248   -0.7844 H   0  0  0  0  0  0  0  0  0  0  0  0
   -2.8578    9.2904   -2.2140 H   0  0  0  0  0  0  0  0  0  0  0  0
   -1.9184    6.7030   -2.5758 H   0  0  0  0  0  0  0  0  0  0  0  0
   -4.9790    7.1544   -0.4941 H   0  0  0  0  0  0  0  0  0  0  0  0
   -5.2853    8.4441   -1.7063 H   0  0  0  0  0  0  0  0  0  0  0  0
   -6.2895    6.9547   -1.7063 H   0  0  0  0  0  0  0  0  0  0  0  0
   -4.7454    4.6807   -1.9585 H   0  0  0  0  0  0  0  0  0  0  0  0
   -5.5388    5.2672   -3.4596 H   0  0  0  0  0  0  0  0  0  0  0  0
   -3.7819    4.8930   -3.4596 H   0  0  0  0  0  0  0  0  0  0  0  0
    1.5286   10.4763   -1.5524 H   0  0  0  0  0  0  0  0  0  0  0  0
    0.8916   10.2625   -3.8730 H   0  0  0  0  0  0  0  0  0  0  0  0
   -0.8386   10.2070   -3.4729 H   0  0  0  0  0  0  0  0  0  0  0  0
    0.5422   12.4586   -4.5633 H   0  0  0  0  0  0  0  0  0  0  0  0
   -1.0568   12.5422   -3.8289 H   0  0  0  0  0  0  0  0  0  0  0  0
    2.6638   12.8984   -1.7033 H   0  0  0  0  0  0  0  0  0  0  0  0
    2.3897   12.0114   -3.2410 H   0  0  0  0  0  0  0  0  0  0  0  0
    2.4678   13.8060   -3.2410 H   0  0  0  0  0  0  0  0  0  0  0  0
   -0.9773   14.3443   -2.2136 H   0  0  0  0  0  0  0  0  0  0  0  0
    0.4478   14.8656   -4.2957 H   0  0  0  0  0  0  0  0  0  0  0  0
   -0.3356   16.2131   -3.3161 H   0  0  0  0  0  0  0  0  0  0  0  0
    2.1310   16.6485   -4.1340 H   0  0  0  0  0  0  0  0  0  0  0  0
    2.6002   14.7419   -0.6063 H   0  0  0  0  0  0  0  0  0  0  0  0
    1.5748   17.5420    0.1680 H   0  0  0  0  0  0  0  0  0  0  0  0
    1.9780   16.1744    1.2985 H   0  0  0  0  0  0  0  0  0  0  0  0
    3.7595   17.8897    1.2306 H   0  0  0  0  0  0  0  0  0  0  0  0
    4.3111   16.2745    0.6367 H   0  0  0  0  0  0  0  0  0  0  0  0
    5.1910   17.9710   -0.8150 H   0  0  0  0  0  0  0  0  0  0  0  0
    4.0110   19.7160   -1.0920 H   0  0  0  0  0  0  0  0  0  0  0  0
    5.1494   15.4284   -0.9844 H   0  0  0  0  0  0  0  0  0  0  0  0
    4.5238   14.7796   -2.5382 H   0  0  0  0  0  0  0  0  0  0  0  0
    5.8743   15.9640   -2.5382 H   0  0  0  0  0  0  0  0  0  0  0  0
    4.6977   18.6060   -3.1110 H   0  0  0  0  0  0  0  0  0  0  0  0
    5.0065   17.0698   -3.9894 H   0  0  0  0  0  0  0  0  0  0  0  0
    3.3605   17.7893   -3.9894 H   0  0  0  0  0  0  0  0  0  0  0  0
   -0.6149   16.3226    0.5820 H   0  0  0  0  0  0  0  0  0  0  0  0
   -0.1438   17.1429   -0.9449 H   0  0  0  0  0  0  0  0  0  0  0  0
   -1.4824   15.9451   -0.9449 H   0  0  0  0  0  0  0  0  0  0  0  0
    0.9965   14.3496    1.1955 H   0  0  0  0  0  0  0  0  0  0  0  0
   -0.7148   13.9856    0.5851 H   0  0  0  0  0  0  0  0  0  0  0  0
    1.8385   12.4885   -0.0676 H   0  0  0  0  0  0  0  0  0  0  0  0
    0.3994   11.9139    0.8634 H   0  0  0  0  0  0  0  0  0  0  0  0
   -1.6892   12.1280    0.0357 H   0  0  0  0  0  0  0  0  0  0  0  0
   -1.8833   13.0307   -1.5051 H   0  0  0  0  0  0  0  0  0  0  0  0
   -1.9238   11.2349   -1.5051 H   0  0  0  0  0  0  0  0  0  0  0  0
  1  2  1  0
  2  3  1  0
  3  4  1  0
  4  5  1  0
  5  6  1  0
  6  7  1  0
  7  8  1  0
  7  9  1  0
  2 10  1  0
 10 11  1  0
 11 12  1  0
 12 13  1  0
 13 14  1  6
 13 15  1  0
 15 16  1  0
 16 17  1  0
 17 18  2  0
 18 19  1  0
 19 20  1  0
 20 21  1  0
 21 22  1  0
 22 23  1  0
 22 24  1  0
 24 25  1  0
 24 26  1  0
 19 27  1  0
 27 28  1  1
 27 29  1  0
 29 30  1  0
 30 31  1  0
 31 32  1  1
  7  5  1  0
 31 10  1  0
 31 13  1  0
 27 15  1  0
 24 18  1  0
  1 33  1  0
  1 34  1  0
  1 35  1  0
  2 36  1  1
  3 37  1  0
  3 38  1  0
  4 39  1  0
  4 40  1  0
  5 41  1  6
  8 42  1  0
  8 43  1  0
  8 44  1  0
  9 45  1  0
  9 46  1  0
  9 47  1  0
 10 48  1  6
 11 49  1  0
 11 50  1  0
 12 51  1  0
 12 52  1  0
 14 53  1  0
 14 54  1  0
 14 55  1  0
 15 56  1  1
 16 57  1  0
 16 58  1  0
 17 59  1  0
 19 60  1  1
 20 61  1  0
 20 62  1  0
 21 63  1  0
 21 64  1  0
 22 65  1  1
 23 66  1  0
 25 67  1  0
 25 68  1  0
 25 69  1  0
 26 70  1  0
 26 71  1  0
 26 72  1  0
 28 73  1  0
 28 74  1  0
 28 75  1  0
 29 76  1  0
 29 77  1  0
 30 78  1  0
 30 79  1  0
 32 80  1  0
 32 81  1  0
 32 82  1  0
M  END
>  <meeko>  (12) 
{"is_sidechain": [false], "intermolecular_energy": 2.731, "internal_energy": -0.839}

$$$$
EPH_relaxed_0001_pdb2pqr_Repair_323_r2_0001_out
     RDKit          3D

 82 86  0  0  0  0  0  0  0  0999 V2000
    4.8120   17.3150   -3.0490 C   0  0  0  0  0  0  0  0  0  0  0  0
    3.3610   17.2800   -2.5590 C   0  0  2  0  0  0  0  0  0  0  0  0
    3.0030   18.5210   -1.7160 C   0  0  0  0  0  0  0  0  0  0  0  0
    1.6230   19.1030   -2.0330 C   0  0  0  0  0  0  0  0  0  0  0  0
    1.0640   19.8670   -0.8710 C   0  0  2  0  0  0  0  0  0  0  0  0
    1.5020   19.4070    0.4140 O   0  0  0  0  0  0  0  0  0  0  0  0
    0.0990   19.2690    0.1360 C   0  0  0  0  0  0  0  0  0  0  0  0
   -0.3640   17.8500    0.0270 C   0  0  0  0  0  0  0  0  0  0  0  0
   -0.7680   20.1940    0.9330 C   0  0  0  0  0  0  0  0  0  0  0  0
    3.1160   16.0120   -1.7490 C   0  0  1  0  0  0  0  0  0  0  0  0
    3.2430   16.2460   -0.2200 C   0  0  0  0  0  0  0  0  0  0  0  0
    2.2010   15.3230    0.4610 C   0  0  0  0  0  0  0  0  0  0  0  0
    1.7450   14.3560   -0.6570 C   0  0  1  0  0  0  0  0  0  0  0  0
    2.8580   13.2630   -0.7210 C   0  0  0  0  0  0  0  0  0  0  0  0
    0.3250   13.7250   -0.4880 C   0  0  2  0  0  0  0  0  0  0  0  0
    0.1510   12.8320    0.7520 C   0  0  0  0  0  0  0  0  0  0  0  0
    0.4610   11.3860    0.5460 C   0  0  0  0  0  0  0  0  0  0  0  0
    0.5880   10.7760   -0.6470 C   0  0  0  0  0  0  0  0  0  0  0  0
    0.3170   11.5340   -1.9530 C   0  0  1  0  0  0  0  0  0  0  0  0
   -0.5750   10.6680   -2.8800 C   0  0  0  0  0  0  0  0  0  0  0  0
    0.0080    9.2790   -3.1220 C   0  0  0  0  0  0  0  0  0  0  0  0
    0.2080    8.5340   -1.8050 C   0  0  2  0  0  0  0  0  0  0  0  0
   -1.0740    8.2640   -1.2290 O   0  0  0  0  0  0  0  0  0  0  0  0
    1.0840    9.3150   -0.7860 C   0  0  0  0  0  0  0  0  0  0  0  0
    2.5520    9.3460   -1.2780 C   0  0  0  0  0  0  0  0  0  0  0  0
    1.0900    8.5200    0.5470 C   0  0  0  0  0  0  0  0  0  0  0  0
   -0.2290   13.0180   -1.7920 C   0  0  1  0  0  0  0  0  0  0  0  0
   -1.7830   13.0020   -1.6630 C   0  0  0  0  0  0  0  0  0  0  0  0
    0.0990   13.8320   -3.0990 C   0  0  0  0  0  0  0  0  0  0  0  0
    1.4710   14.5320   -3.1560 C   0  0  0  0  0  0  0  0  0  0  0  0
    1.7250   15.3420   -1.8810 C   0  0  2  0  0  0  0  0  0  0  0  0
    0.6340   16.4640   -1.8020 C   0  0  0  0  0  0  0  0  0  0  0  0
    5.4909   17.3314   -2.1837 H   0  0  0  0  0  0  0  0  0  0  0  0
    5.0151   16.4215   -3.6576 H   0  0  0  0  0  0  0  0  0  0  0  0
    4.9718   18.2173   -3.6576 H   0  0  0  0  0  0  0  0  0  0  0  0
    2.7117   17.2851   -3.4469 H   0  0  0  0  0  0  0  0  0  0  0  0
    3.0244   18.2371   -0.6535 H   0  0  0  0  0  0  0  0  0  0  0  0
    3.7429   19.2982   -1.9577 H   0  0  0  0  0  0  0  0  0  0  0  0
    1.7110   19.7798   -2.8956 H   0  0  0  0  0  0  0  0  0  0  0  0
    0.9414   18.2686   -2.2549 H   0  0  0  0  0  0  0  0  0  0  0  0
    1.0318   20.7928   -1.4642 H   0  0  0  0  0  0  0  0  0  0  0  0
   -0.5009   17.4305    1.0346 H   0  0  0  0  0  0  0  0  0  0  0  0
   -1.3196   17.8168   -0.5169 H   0  0  0  0  0  0  0  0  0  0  0  0
    0.3881   17.2597   -0.5169 H   0  0  0  0  0  0  0  0  0  0  0  0
   -0.6028   20.0178    2.0062 H   0  0  0  0  0  0  0  0  0  0  0  0
   -0.5137   21.2361    0.6891 H   0  0  0  0  0  0  0  0  0  0  0  0
   -1.8243   20.0076    0.6891 H   0  0  0  0  0  0  0  0  0  0  0  0
    3.8896   15.3623   -2.1843 H   0  0  0  0  0  0  0  0  0  0  0  0
    4.2569   15.9882    0.1198 H   0  0  0  0  0  0  0  0  0  0  0  0
    3.0628   17.3008    0.0347 H   0  0  0  0  0  0  0  0  0  0  0  0
    2.6594   14.7669    1.2920 H   0  0  0  0  0  0  0  0  0  0  0  0
    1.3612   15.8886    0.8909 H   0  0  0  0  0  0  0  0  0  0  0  0
    3.1497   12.9765    0.3002 H   0  0  0  0  0  0  0  0  0  0  0  0
    2.4749   12.3804   -1.2541 H   0  0  0  0  0  0  0  0  0  0  0  0
    3.7335   13.6620   -1.2541 H   0  0  0  0  0  0  0  0  0  0  0  0
   -0.3061   14.6083   -0.3103 H   0  0  0  0  0  0  0  0  0  0  0  0
    0.8160   13.2130    1.5411 H   0  0  0  0  0  0  0  0  0  0  0  0
   -0.9163   12.8798    1.0137 H   0  0  0  0  0  0  0  0  0  0  0  0
    0.5971   10.7671    1.4451 H   0  0  0  0  0  0  0  0  0  0  0  0
    1.2992   11.6913   -2.4226 H   0  0  0  0  0  0  0  0  0  0  0  0
   -1.5656   10.5584   -2.4144 H   0  0  0  0  0  0  0  0  0  0  0  0
   -0.6391   11.1774   -3.8528 H   0  0  0  0  0  0  0  0  0  0  0  0
   -0.6813    8.7053   -3.7590 H   0  0  0  0  0  0  0  0  0  0  0  0
    0.9853    9.3895   -3.6146 H   0  0  0  0  0  0  0  0  0  0  0  0
    0.7463    7.6020   -2.0319 H   0  0  0  0  0  0  0  0  0  0  0  0
   -1.7420    8.4010   -1.9210 H   0  0  0  0  0  0  0  0  0  0  0  0
    3.2290    9.3603   -0.4111 H   0  0  0  0  0  0  0  0  0  0  0  0
    2.7538    8.4519   -1.8862 H   0  0  0  0  0  0  0  0  0  0  0  0
    2.7159   10.2478   -1.8862 H   0  0  0  0  0  0  0  0  0  0  0  0
    1.0847    9.2229    1.3931 H   0  0  0  0  0  0  0  0  0  0  0  0
    0.1967    7.8801    0.5963 H   0  0  0  0  0  0  0  0  0  0  0  0
    1.9929    7.8936    0.5963 H   0  0  0  0  0  0  0  0  0  0  0  0
   -2.0626   12.9991   -0.5991 H   0  0  0  0  0  0  0  0  0  0  0  0
   -2.2005   13.8959   -2.1494 H   0  0  0  0  0  0  0  0  0  0  0  0
   -2.1820   12.0997   -2.1494 H   0  0  0  0  0  0  0  0  0  0  0  0
    0.0460   13.1342   -3.9477 H   0  0  0  0  0  0  0  0  0  0  0  0
   -0.6406   14.6459   -3.1243 H   0  0  0  0  0  0  0  0  0  0  0  0
    2.2589   13.7719   -3.2627 H   0  0  0  0  0  0  0  0  0  0  0  0
    1.4799   15.2181   -4.0158 H   0  0  0  0  0  0  0  0  0  0  0  0
    0.4152   16.6891   -0.7477 H   0  0  0  0  0  0  0  0  0  0  0  0
    1.0044   17.3714   -2.3014 H   0  0  0  0  0  0  0  0  0  0  0  0
   -0.2834   16.1192   -2.3014 H   0  0  0  0  0  0  0  0  0  0  0  0
  1  2  1  0
  2  3  1  0
  3  4  1  0
  4  5  1  0
  5  6  1  0
  6  7  1  0
  7  8  1  0
  7  9  1  0
  2 10  1  0
 10 11  1  0
 11 12  1  0
 12 13  1  0
 13 14  1  6
 13 15  1  0
 15 16  1  0
 16 17  1  0
 17 18  2  0
 18 19  1  0
 19 20  1  0
 20 21  1  0
 21 22  1  0
 22 23  1  0
 22 24  1  0
 24 25  1  0
 24 26  1  0
 19 27  1  0
 27 28  1  1
 27 29  1  0
 29 30  1  0
 30 31  1  0
 31 32  1  1
  7  5  1  0
 31 10  1  0
 31 13  1  0
 27 15  1  0
 24 18  1  0
  1 33  1  0
  1 34  1  0
  1 35  1  0
  2 36  1  6
  3 37  1  0
  3 38  1  0
  4 39  1  0
  4 40  1  0
  5 41  1  6
  8 42  1  0
  8 43  1  0
  8 44  1  0
  9 45  1  0
  9 46  1  0
  9 47  1  0
 10 48  1  6
 11 49  1  0
 11 50  1  0
 12 51  1  0
 12 52  1  0
 14 53  1  0
 14 54  1  0
 14 55  1  0
 15 56  1  1
 16 57  1  0
 16 58  1  0
 17 59  1  0
 19 60  1  6
 20 61  1  0
 20 62  1  0
 21 63  1  0
 21 64  1  0
 22 65  1  6
 23 66  1  0
 25 67  1  0
 25 68  1  0
 25 69  1  0
 26 70  1  0
 26 71  1  0
 26 72  1  0
 28 73  1  0
 28 74  1  0
 28 75  1  0
 29 76  1  0
 29 77  1  0
 30 78  1  0
 30 79  1  0
 32 80  1  0
 32 81  1  0
 32 82  1  0
M  END
>  <meeko>  (13) 
{"is_sidechain": [false], "intermolecular_energy": 2.731, "internal_energy": -0.839}

$$$$
EPH_relaxed_0001_pdb2pqr_Repair_323_r2_0001_out
     RDKit          3D

 82 86  0  0  0  0  0  0  0  0999 V2000
   -5.2040    5.8500   -1.5650 C   0  0  0  0  0  0  0  0  0  0  0  0
   -5.4510    7.3470   -1.7730 C   0  0  2  0  0  0  0  0  0  0  0  0
   -5.1780    8.1640   -0.4940 C   0  0  0  0  0  0  0  0  0  0  0  0
   -4.1840    9.3110   -0.6970 C   0  0  0  0  0  0  0  0  0  0  0  0
   -2.7790    8.8860   -0.3950 C   0  0  2  0  0  0  0  0  0  0  0  0
   -2.1470    9.6140    0.6660 O   0  0  0  0  0  0  0  0  0  0  0  0
   -1.5680    9.7660   -0.6390 C   0  0  0  0  0  0  0  0  0  0  0  0
   -1.7060   11.1430   -1.2100 C   0  0  0  0  0  0  0  0  0  0  0  0
   -0.2270    9.1160   -0.7830 C   0  0  0  0  0  0  0  0  0  0  0  0
   -6.8820    7.5770   -2.2440 C   0  0  1  0  0  0  0  0  0  0  0  0
   -7.1830    6.8870   -3.6000 C   0  0  0  0  0  0  0  0  0  0  0  0
   -8.6590    6.4160   -3.5450 C   0  0  0  0  0  0  0  0  0  0  0  0
   -9.2510    7.1340   -2.3090 C   0  0  1  0  0  0  0  0  0  0  0  0
   -9.5970    8.5720   -2.8090 C   0  0  0  0  0  0  0  0  0  0  0  0
  -10.4820    6.4460   -1.6340 C   0  0  2  0  0  0  0  0  0  0  0  0
  -11.7320    6.3250   -2.5240 C   0  0  0  0  0  0  0  0  0  0  0  0
  -12.6840    7.4720   -2.4440 C   0  0  0  0  0  0  0  0  0  0  0  0
  -12.6920    8.4180   -1.4860 C   0  0  0  0  0  0  0  0  0  0  0  0
  -11.7330    8.3350   -0.2910 C   0  0  1  0  0  0  0  0  0  0  0  0
  -12.5160    8.6120    1.0200 C   0  0  0  0  0  0  0  0  0  0  0  0
  -13.2830    9.9300    0.9770 C   0  0  0  0  0  0  0  0  0  0  0  0
  -14.2670    9.9500   -0.1900 C   0  0  2  0  0  0  0  0  0  0  0  0
  -15.2870    8.9760    0.0500 O   0  0  0  0  0  0  0  0  0  0  0  0
  -13.5940    9.6740   -1.5640 C   0  0  0  0  0  0  0  0  0  0  0  0
  -12.7110   10.8820   -1.9630 C   0  0  0  0  0  0  0  0  0  0  0  0
  -14.7140    9.5820   -2.6350 C   0  0  0  0  0  0  0  0  0  0  0  0
  -10.8430    7.0220   -0.2050 C   0  0  1  0  0  0  0  0  0  0  0  0
  -11.6240    5.8980    0.5430 C   0  0  0  0  0  0  0  0  0  0  0  0
   -9.5620    7.3240    0.6590 C   0  0  0  0  0  0  0  0  0  0  0  0
   -8.3390    7.8910   -0.0860 C   0  0  0  0  0  0  0  0  0  0  0  0
   -8.0220    7.0580   -1.3320 C   0  0  2  0  0  0  0  0  0  0  0  0
   -7.6490    5.6120   -0.8590 C   0  0  0  0  0  0  0  0  0  0  0  0
   -5.1678    5.6306   -0.4877 H   0  0  0  0  0  0  0  0  0  0  0  0
   -6.0196    5.2759   -2.0289 H   0  0  0  0  0  0  0  0  0  0  0  0
   -4.2472    5.5683   -2.0289 H   0  0  0  0  0  0  0  0  0  0  0  0
   -4.7464    7.6951   -2.5427 H   0  0  0  0  0  0  0  0  0  0  0  0
   -6.1304    8.5878   -0.1427 H   0  0  0  0  0  0  0  0  0  0  0  0
   -4.7298    7.4757    0.2377 H   0  0  0  0  0  0  0  0  0  0  0  0
   -4.2375    9.6484   -1.7426 H   0  0  0  0  0  0  0  0  0  0  0  0
   -4.4525   10.1241   -0.0065 H   0  0  0  0  0  0  0  0  0  0  0  0
   -3.0072    7.8486   -0.6807 H   0  0  0  0  0  0  0  0  0  0  0  0
   -1.7792   11.8738   -0.3912 H   0  0  0  0  0  0  0  0  0  0  0  0
   -0.8264   11.3730   -1.8292 H   0  0  0  0  0  0  0  0  0  0  0  0
   -2.6137   11.1939   -1.8292 H   0  0  0  0  0  0  0  0  0  0  0  0
    0.1912    8.9133    0.2140 H   0  0  0  0  0  0  0  0  0  0  0  0
   -0.3352    8.1704   -1.3344 H   0  0  0  0  0  0  0  0  0  0  0  0
    0.4483    9.7868   -1.3344 H   0  0  0  0  0  0  0  0  0  0  0  0
   -6.8928    8.6766   -2.2716 H   0  0  0  0  0  0  0  0  0  0  0  0
   -7.0433    7.5992   -4.4266 H   0  0  0  0  0  0  0  0  0  0  0  0
   -6.5040    6.0385   -3.7704 H   0  0  0  0  0  0  0  0  0  0  0  0
   -9.1951    6.7106   -4.4592 H   0  0  0  0  0  0  0  0  0  0  0  0
   -8.7457    5.3218   -3.4735 H   0  0  0  0  0  0  0  0  0  0  0  0
   -9.7560    9.2326   -1.9440 H   0  0  0  0  0  0  0  0  0  0  0  0
   -8.7662    8.9584   -3.4177 H   0  0  0  0  0  0  0  0  0  0  0  0
  -10.5126    8.5382   -3.4177 H   0  0  0  0  0  0  0  0  0  0  0  0
  -10.1234    5.4172   -1.4824 H   0  0  0  0  0  0  0  0  0  0  0  0
  -11.3984    6.2321   -3.5681 H   0  0  0  0  0  0  0  0  0  0  0  0
  -12.2827    5.4458   -2.1581 H   0  0  0  0  0  0  0  0  0  0  0  0
  -13.4439    7.5511   -3.2354 H   0  0  0  0  0  0  0  0  0  0  0  0
  -10.9799    9.1208   -0.4499 H   0  0  0  0  0  0  0  0  0  0  0  0
  -13.2318    7.7928    1.1828 H   0  0  0  0  0  0  0  0  0  0  0  0
  -11.7837    8.6789    1.8380 H   0  0  0  0  0  0  0  0  0  0  0  0
  -13.8382   10.0544    1.9184 H   0  0  0  0  0  0  0  0  0  0  0  0
  -12.5633   10.7512    0.8439 H   0  0  0  0  0  0  0  0  0  0  0  0
  -14.6909   10.9635   -0.2463 H   0  0  0  0  0  0  0  0  0  0  0  0
  -14.8490    8.1530    0.3250 H   0  0  0  0  0  0  0  0  0  0  0  0
  -12.3442   11.3837   -1.0554 H   0  0  0  0  0  0  0  0  0  0  0  0
  -11.8557   10.5302   -2.5585 H   0  0  0  0  0  0  0  0  0  0  0  0
  -13.3059   11.5902   -2.5585 H   0  0  0  0  0  0  0  0  0  0  0  0
  -15.6916    9.5017   -2.1372 H   0  0  0  0  0  0  0  0  0  0  0  0
  -14.6955   10.4847   -3.2633 H   0  0  0  0  0  0  0  0  0  0  0  0
  -14.5485    8.6944   -3.2633 H   0  0  0  0  0  0  0  0  0  0  0  0
  -11.5238    6.0422    1.6289 H   0  0  0  0  0  0  0  0  0  0  0  0
  -12.6871    5.9420    0.2638 H   0  0  0  0  0  0  0  0  0  0  0  0
  -11.2119    4.9171    0.2638 H   0  0  0  0  0  0  0  0  0  0  0  0
   -9.8468    8.0518    1.4331 H   0  0  0  0  0  0  0  0  0  0  0  0
   -9.2368    6.3458    1.0428 H   0  0  0  0  0  0  0  0  0  0  0  0
   -8.5509    8.9267   -0.3898 H   0  0  0  0  0  0  0  0  0  0  0  0
   -7.4707    7.8579    0.5886 H   0  0  0  0  0  0  0  0  0  0  0  0
   -7.6399    5.5768    0.2404 H   0  0  0  0  0  0  0  0  0  0  0  0
   -8.3923    4.8976   -1.2426 H   0  0  0  0  0  0  0  0  0  0  0  0
   -6.6529    5.3462   -1.2426 H   0  0  0  0  0  0  0  0  0  0  0  0
  1  2  1  0
  2  3  1  0
  3  4  1  0
  4  5  1  0
  5  6  1  0
  6  7  1  0
  7  8  1  0
  7  9  1  0
  2 10  1  0
 10 11  1  0
 11 12  1  0
 12 13  1  0
 13 14  1  6
 13 15  1  0
 15 16  1  0
 16 17  1  0
 17 18  2  0
 18 19  1  0
 19 20  1  0
 20 21  1  0
 21 22  1  0
 22 23  1  0
 22 24  1  0
 24 25  1  0
 24 26  1  0
 19 27  1  0
 27 28  1  1
 27 29  1  0
 29 30  1  0
 30 31  1  0
 31 32  1  1
  7  5  1  0
 31 10  1  0
 31 13  1  0
 27 15  1  0
 24 18  1  0
  1 33  1  0
  1 34  1  0
  1 35  1  0
  2 36  1  6
  3 37  1  0
  3 38  1  0
  4 39  1  0
  4 40  1  0
  5 41  1  1
  8 42  1  0
  8 43  1  0
  8 44  1  0
  9 45  1  0
  9 46  1  0
  9 47  1  0
 10 48  1  6
 11 49  1  0
 11 50  1  0
 12 51  1  0
 12 52  1  0
 14 53  1  0
 14 54  1  0
 14 55  1  0
 15 56  1  1
 16 57  1  0
 16 58  1  0
 17 59  1  0
 19 60  1  6
 20 61  1  0
 20 62  1  0
 21 63  1  0
 21 64  1  0
 22 65  1  6
 23 66  1  0
 25 67  1  0
 25 68  1  0
 25 69  1  0
 26 70  1  0
 26 71  1  0
 26 72  1  0
 28 73  1  0
 28 74  1  0
 28 75  1  0
 29 76  1  0
 29 77  1  0
 30 78  1  0
 30 79  1  0
 32 80  1  0
 32 81  1  0
 32 82  1  0
M  END
>  <meeko>  (14) 
{"is_sidechain": [false], "intermolecular_energy": 2.731, "internal_energy": -0.839}

$$$$
EPH_relaxed_0001_pdb2pqr_Repair_323_r2_0001_out
     RDKit          3D

 82 86  0  0  0  0  0  0  0  0999 V2000
    0.0860   17.5900    0.1710 C   0  0  0  0  0  0  0  0  0  0  0  0
    0.9320   17.1200   -1.0160 C   0  0  2  0  0  0  0  0  0  0  0  0
    1.0160   18.1850   -2.1270 C   0  0  0  0  0  0  0  0  0  0  0  0
    2.3070   19.0090   -2.0940 C   0  0  0  0  0  0  0  0  0  0  0  0
    3.3600   18.4250   -2.9860 C   0  0  2  0  0  0  0  0  0  0  0  0
    3.3790   16.9920   -3.0320 O   0  0  0  0  0  0  0  0  0  0  0  0
    4.5420   17.6240   -2.4730 C   0  0  0  0  0  0  0  0  0  0  0  0
    4.7320   17.3630   -1.0110 C   0  0  0  0  0  0  0  0  0  0  0  0
    5.7610   17.5140   -3.3340 C   0  0  0  0  0  0  0  0  0  0  0  0
    0.3620   15.8230   -1.5800 C   0  0  1  0  0  0  0  0  0  0  0  0
    0.0390   15.9220   -3.0940 C   0  0  0  0  0  0  0  0  0  0  0  0
    0.3400   14.5300   -3.7070 C   0  0  0  0  0  0  0  0  0  0  0  0
    0.5050   13.5940   -2.4870 C   0  0  1  0  0  0  0  0  0  0  0  0
   -0.9520   13.2300   -2.0610 C   0  0  0  0  0  0  0  0  0  0  0  0
    1.3770   12.3150   -2.7100 C   0  0  2  0  0  0  0  0  0  0  0  0
    0.8330   11.3290   -3.7580 C   0  0  0  0  0  0  0  0  0  0  0  0
   -0.0780   10.2730   -3.2270 C   0  0  0  0  0  0  0  0  0  0  0  0
   -0.2230    9.9440   -1.9300 C   0  0  0  0  0  0  0  0  0  0  0  0
    0.6490   10.5970   -0.8500 C   0  0  1  0  0  0  0  0  0  0  0  0
    1.1930    9.5050    0.1070 C   0  0  0  0  0  0  0  0  0  0  0  0
    0.0840    8.6390    0.6970 C   0  0  0  0  0  0  0  0  0  0  0  0
   -0.7240    7.9600   -0.4060 C   0  0  2  0  0  0  0  0  0  0  0  0
    0.1160    7.0170   -1.0780 O   0  0  0  0  0  0  0  0  0  0  0  0
   -1.3150    8.9620   -1.4370 C   0  0  0  0  0  0  0  0  0  0  0  0
   -2.4460    9.7860   -0.7740 C   0  0  0  0  0  0  0  0  0  0  0  0
   -1.9840    8.1400   -2.5720 C   0  0  0  0  0  0  0  0  0  0  0  0
    1.7890   11.5720   -1.3750 C   0  0  1  0  0  0  0  0  0  0  0  0
    3.0780   10.7560   -1.7000 C   0  0  0  0  0  0  0  0  0  0  0  0
    2.1770   12.5750   -0.2260 C   0  0  0  0  0  0  0  0  0  0  0  0
    1.3560   13.8750   -0.1320 C   0  0  0  0  0  0  0  0  0  0  0  0
    1.2540   14.5600   -1.4990 C   0  0  2  0  0  0  0  0  0  0  0  0
    2.7030   14.9570   -1.9440 C   0  0  0  0  0  0  0  0  0  0  0  0
    0.5861   17.3122    1.1105 H   0  0  0  0  0  0  0  0  0  0  0  0
   -0.0317   18.6828    0.1275 H   0  0  0  0  0  0  0  0  0  0  0  0
   -0.9040   17.1126    0.1275 H   0  0  0  0  0  0  0  0  0  0  0  0
    1.9535   16.9474   -0.6461 H   0  0  0  0  0  0  0  0  0  0  0  0
    0.9532   17.6769   -3.1006 H   0  0  0  0  0  0  0  0  0  0  0  0
    0.1835   18.8853   -1.9645 H   0  0  0  0  0  0  0  0  0  0  0  0
    2.0848   20.0333   -2.4279 H   0  0  0  0  0  0  0  0  0  0  0  0
    2.6902   19.0050   -1.0629 H   0  0  0  0  0  0  0  0  0  0  0  0
    3.2922   19.2856   -3.6678 H   0  0  0  0  0  0  0  0  0  0  0  0
    4.1825   18.1178   -0.4293 H   0  0  0  0  0  0  0  0  0  0  0  0
    4.3504   16.3611   -0.7648 H   0  0  0  0  0  0  0  0  0  0  0  0
    5.8027   17.4183   -0.7648 H   0  0  0  0  0  0  0  0  0  0  0  0
    6.6540   17.4334   -2.6967 H   0  0  0  0  0  0  0  0  0  0  0  0
    5.6818   16.6194   -3.9691 H   0  0  0  0  0  0  0  0  0  0  0  0
    5.8433   18.4084   -3.9691 H   0  0  0  0  0  0  0  0  0  0  0  0
   -0.5144   15.7064   -0.9256 H   0  0  0  0  0  0  0  0  0  0  0  0
   -1.0207   16.1789   -3.2393 H   0  0  0  0  0  0  0  0  0  0  0  0
    0.6424   16.7051   -3.5764 H   0  0  0  0  0  0  0  0  0  0  0  0
   -0.4940   14.1968   -4.3421 H   0  0  0  0  0  0  0  0  0  0  0  0
    1.2337   14.5410   -4.3483 H   0  0  0  0  0  0  0  0  0  0  0  0
   -1.0196   13.2131   -0.9632 H   0  0  0  0  0  0  0  0  0  0  0  0
   -1.6492   13.9816   -2.4598 H   0  0  0  0  0  0  0  0  0  0  0  0
   -1.2138   12.2388   -2.4598 H   0  0  0  0  0  0  0  0  0  0  0  0
    2.2995   12.7299   -3.1423 H   0  0  0  0  0  0  0  0  0  0  0  0
    0.2800   11.9066   -4.5134 H   0  0  0  0  0  0  0  0  0  0  0  0
    1.7089   10.8003   -4.1621 H   0  0  0  0  0  0  0  0  0  0  0  0
   -0.6825    9.7160   -3.9579 H   0  0  0  0  0  0  0  0  0  0  0  0
   -0.0125   11.2807   -0.2977 H   0  0  0  0  0  0  0  0  0  0  0  0
    1.8852    8.8587   -0.4526 H   0  0  0  0  0  0  0  0  0  0  0  0
    1.6989   10.0136    0.9409 H   0  0  0  0  0  0  0  0  0  0  0  0
    0.5331    7.8682    1.3406 H   0  0  0  0  0  0  0  0  0  0  0  0
   -0.5907    9.2825    1.2807 H   0  0  0  0  0  0  0  0  0  0  0  0
   -1.5798    7.4600    0.0711 H   0  0  0  0  0  0  0  0  0  0  0  0
    0.2540    6.2650   -0.4770 H   0  0  0  0  0  0  0  0  0  0  0  0
   -2.3549    9.7196    0.3202 H   0  0  0  0  0  0  0  0  0  0  0  0
   -2.3644   10.8378   -1.0856 H   0  0  0  0  0  0  0  0  0  0  0  0
   -3.4221    9.3859   -1.0856 H   0  0  0  0  0  0  0  0  0  0  0  0
   -2.6204    7.3580   -2.1322 H   0  0  0  0  0  0  0  0  0  0  0  0
   -2.5993    8.8068   -3.1939 H   0  0  0  0  0  0  0  0  0  0  0  0
   -1.2061    7.6729   -3.1939 H   0  0  0  0  0  0  0  0  0  0  0  0
    3.5636   10.4486   -0.7621 H   0  0  0  0  0  0  0  0  0  0  0  0
    2.8093    9.8631   -2.2836 H   0  0  0  0  0  0  0  0  0  0  0  0
    3.7701   11.3808   -2.2836 H   0  0  0  0  0  0  0  0  0  0  0  0
    2.0686   12.0431    0.7307 H   0  0  0  0  0  0  0  0  0  0  0  0
    3.2020   12.8983   -0.4602 H   0  0  0  0  0  0  0  0  0  0  0  0
    0.3441   13.6362    0.2271 H   0  0  0  0  0  0  0  0  0  0  0  0
    1.8612   14.5589    0.5659 H   0  0  0  0  0  0  0  0  0  0  0  0
    3.3261   15.1277   -1.0537 H   0  0  0  0  0  0  0  0  0  0  0  0
    3.1374   14.1448   -2.5453 H   0  0  0  0  0  0  0  0  0  0  0  0
    2.6627   15.8772   -2.5453 H   0  0  0  0  0  0  0  0  0  0  0  0
  1  2  1  0
  2  3  1  0
  3  4  1  0
  4  5  1  0
  5  6  1  0
  6  7  1  0
  7  8  1  0
  7  9  1  0
  2 10  1  0
 10 11  1  0
 11 12  1  0
 12 13  1  0
 13 14  1  1
 13 15  1  0
 15 16  1  0
 16 17  1  0
 17 18  2  0
 18 19  1  0
 19 20  1  0
 20 21  1  0
 21 22  1  0
 22 23  1  0
 22 24  1  0
 24 25  1  0
 24 26  1  0
 19 27  1  0
 27 28  1  6
 27 29  1  0
 29 30  1  0
 30 31  1  0
 31 32  1  6
  7  5  1  0
 31 10  1  0
 31 13  1  0
 27 15  1  0
 24 18  1  0
  1 33  1  0
  1 34  1  0
  1 35  1  0
  2 36  1  1
  3 37  1  0
  3 38  1  0
  4 39  1  0
  4 40  1  0
  5 41  1  6
  8 42  1  0
  8 43  1  0
  8 44  1  0
  9 45  1  0
  9 46  1  0
  9 47  1  0
 10 48  1  1
 11 49  1  0
 11 50  1  0
 12 51  1  0
 12 52  1  0
 14 53  1  0
 14 54  1  0
 14 55  1  0
 15 56  1  6
 16 57  1  0
 16 58  1  0
 17 59  1  0
 19 60  1  1
 20 61  1  0
 20 62  1  0
 21 63  1  0
 21 64  1  0
 22 65  1  1
 23 66  1  0
 25 67  1  0
 25 68  1  0
 25 69  1  0
 26 70  1  0
 26 71  1  0
 26 72  1  0
 28 73  1  0
 28 74  1  0
 28 75  1  0
 29 76  1  0
 29 77  1  0
 30 78  1  0
 30 79  1  0
 32 80  1  0
 32 81  1  0
 32 82  1  0
M  END
>  <meeko>  (15) 
{"is_sidechain": [false], "intermolecular_energy": 2.731, "internal_energy": -0.839}

$$$$
EPH_relaxed_0001_pdb2pqr_Repair_323_r2_0001_out
     RDKit          3D

 82 86  0  0  0  0  0  0  0  0999 V2000
    2.2770   20.0140   -0.7020 C   0  0  0  0  0  0  0  0  0  0  0  0
    2.2380   19.1570   -1.9710 C   0  0  2  0  0  0  0  0  0  0  0  0
    0.8310   19.1150   -2.6000 C   0  0  0  0  0  0  0  0  0  0  0  0
   -0.1680   20.0680   -1.9380 C   0  0  0  0  0  0  0  0  0  0  0  0
   -1.2700   19.3220   -1.2480 C   0  0  2  0  0  0  0  0  0  0  0  0
   -2.2870   20.1530   -0.6730 O   0  0  0  0  0  0  0  0  0  0  0  0
   -1.5070   19.3750    0.2500 C   0  0  0  0  0  0  0  0  0  0  0  0
   -0.6340   20.1930    1.1490 C   0  0  0  0  0  0  0  0  0  0  0  0
   -2.2700   18.2600    0.8930 C   0  0  0  0  0  0  0  0  0  0  0  0
    2.7100   17.7420   -1.6570 C   0  0  1  0  0  0  0  0  0  0  0  0
    3.5470   17.6670   -0.3520 C   0  0  0  0  0  0  0  0  0  0  0  0
    3.2170   16.3060    0.3140 C   0  0  0  0  0  0  0  0  0  0  0  0
    2.4680   15.5090   -0.7800 C   0  0  1  0  0  0  0  0  0  0  0  0
    3.5930   14.9310   -1.6950 C   0  0  0  0  0  0  0  0  0  0  0  0
    1.5000   14.3880   -0.2780 C   0  0  2  0  0  0  0  0  0  0  0  0
    2.1730   13.2460    0.5020 C   0  0  0  0  0  0  0  0  0  0  0  0
    2.6290   12.0900   -0.3260 C   0  0  0  0  0  0  0  0  0  0  0  0
    2.2550   11.8410   -1.5950 C   0  0  0  0  0  0  0  0  0  0  0  0
    1.2050   12.7160   -2.2920 C   0  0  1  0  0  0  0  0  0  0  0  0
    0.1690   11.8110   -3.0080 C   0  0  0  0  0  0  0  0  0  0  0  0
    0.8220   10.8130   -3.9600 C   0  0  0  0  0  0  0  0  0  0  0  0
    1.8160    9.9230   -3.2180 C   0  0  2  0  0  0  0  0  0  0  0  0
    1.0950    9.0910   -2.3030 O   0  0  0  0  0  0  0  0  0  0  0  0
    2.9030   10.7250   -2.4500 C   0  0  0  0  0  0  0  0  0  0  0  0
    3.8720   11.3870   -3.4610 C   0  0  0  0  0  0  0  0  0  0  0  0
    3.7530    9.7150   -1.6320 C   0  0  0  0  0  0  0  0  0  0  0  0
    0.5210   13.8310   -1.3900 C   0  0  1  0  0  0  0  0  0  0  0  0
   -0.7070   13.2300   -0.6400 C   0  0  0  0  0  0  0  0  0  0  0  0
   -0.0400   14.9720   -2.3180 C   0  0  0  0  0  0  0  0  0  0  0  0
    0.9300   16.1130   -2.6820 C   0  0  0  0  0  0  0  0  0  0  0  0
    1.6220   16.6630   -1.4310 C   0  0  2  0  0  0  0  0  0  0  0  0
    0.5180   17.2710   -0.5010 C   0  0  0  0  0  0  0  0  0  0  0  0
    2.2473   19.3608    0.1826 H   0  0  0  0  0  0  0  0  0  0  0  0
    3.2031   20.6075   -0.6887 H   0  0  0  0  0  0  0  0  0  0  0  0
    1.4086   20.6891   -0.6887 H   0  0  0  0  0  0  0  0  0  0  0  0
    2.9141   19.6207   -2.7044 H   0  0  0  0  0  0  0  0  0  0  0  0
    0.9174   19.3859   -3.6626 H   0  0  0  0  0  0  0  0  0  0  0  0
    0.4453   18.0948   -2.4569 H   0  0  0  0  0  0  0  0  0  0  0  0
    0.3635   20.6842   -1.1979 H   0  0  0  0  0  0  0  0  0  0  0  0
   -0.6165   20.6949   -2.7227 H   0  0  0  0  0  0  0  0  0  0  0  0
   -1.1714   18.4807   -1.9498 H   0  0  0  0  0  0  0  0  0  0  0  0
   -0.8747   19.9674    2.1984 H   0  0  0  0  0  0  0  0  0  0  0  0
    0.4213   19.9510    0.9547 H   0  0  0  0  0  0  0  0  0  0  0  0
   -0.8069   21.2618    0.9547 H   0  0  0  0  0  0  0  0  0  0  0  0
   -2.2053   18.3546    1.9870 H   0  0  0  0  0  0  0  0  0  0  0  0
   -3.3240   18.3101    0.5823 H   0  0  0  0  0  0  0  0  0  0  0  0
   -1.8416   17.2956    0.5823 H   0  0  0  0  0  0  0  0  0  0  0  0
    3.2687   17.5254   -2.5795 H   0  0  0  0  0  0  0  0  0  0  0  0
    4.6202   17.7235   -0.5866 H   0  0  0  0  0  0  0  0  0  0  0  0
    3.3064   18.5040    0.3200 H   0  0  0  0  0  0  0  0  0  0  0  0
    4.1392   15.7853    0.6114 H   0  0  0  0  0  0  0  0  0  0  0  0
    2.6181   16.4232    1.2292 H   0  0  0  0  0  0  0  0  0  0  0  0
    4.3979   14.5174   -1.0697 H   0  0  0  0  0  0  0  0  0  0  0  0
    3.1765   14.1353   -2.3301 H   0  0  0  0  0  0  0  0  0  0  0  0
    3.9973   15.7330   -2.3301 H   0  0  0  0  0  0  0  0  0  0  0  0
    0.8785   14.9237    0.4547 H   0  0  0  0  0  0  0  0  0  0  0  0
    3.0504   13.6596    1.0207 H   0  0  0  0  0  0  0  0  0  0  0  0
    1.4055   12.8488    1.1826 H   0  0  0  0  0  0  0  0  0  0  0  0
    3.3298   11.3820    0.1405 H   0  0  0  0  0  0  0  0  0  0  0  0
    1.7535   13.3148   -3.0340 H   0  0  0  0  0  0  0  0  0  0  0  0
   -0.3976   11.2538   -2.2474 H   0  0  0  0  0  0  0  0  0  0  0  0
   -0.4864   12.4620   -3.6052 H   0  0  0  0  0  0  0  0  0  0  0  0
    0.0418   10.1828   -4.4119 H   0  0  0  0  0  0  0  0  0  0  0  0
    1.3630   11.3716   -4.7380 H   0  0  0  0  0  0  0  0  0  0  0  0
    2.3454    9.3207   -3.9709 H   0  0  0  0  0  0  0  0  0  0  0  0
    0.7000    9.6690   -1.6280 H   0  0  0  0  0  0  0  0  0  0  0  0
    4.6603   11.9255   -2.9146 H   0  0  0  0  0  0  0  0  0  0  0  0
    4.3286   10.6112   -4.0932 H   0  0  0  0  0  0  0  0  0  0  0  0
    3.3153   12.0944   -4.0932 H   0  0  0  0  0  0  0  0  0  0  0  0
    3.6019    9.8945   -0.5573 H   0  0  0  0  0  0  0  0  0  0  0  0
    3.4424    8.6892   -1.8796 H   0  0  0  0  0  0  0  0  0  0  0  0
    4.8167    9.8459   -1.8796 H   0  0  0  0  0  0  0  0  0  0  0  0
   -0.5477   13.3080    0.4456 H   0  0  0  0  0  0  0  0  0  0  0  0
   -1.6146   13.7858   -0.9183 H   0  0  0  0  0  0  0  0  0  0  0  0
   -0.8249   12.1723   -0.9183 H   0  0  0  0  0  0  0  0  0  0  0  0
   -0.3708   14.5044   -3.2571 H   0  0  0  0  0  0  0  0  0  0  0  0
   -0.8399   15.4503   -1.7338 H   0  0  0  0  0  0  0  0  0  0  0  0
    1.6925   15.7297   -3.3761 H   0  0  0  0  0  0  0  0  0  0  0  0
    0.3561   16.9254   -3.1517 H   0  0  0  0  0  0  0  0  0  0  0  0
    0.7989   17.1163    0.5512 H   0  0  0  0  0  0  0  0  0  0  0  0
    0.4231   18.3486   -0.7005 H   0  0  0  0  0  0  0  0  0  0  0  0
   -0.4434   16.7751   -0.7005 H   0  0  0  0  0  0  0  0  0  0  0  0
  1  2  1  0
  2  3  1  0
  3  4  1  0
  4  5  1  0
  5  6  1  0
  6  7  1  0
  7  8  1  0
  7  9  1  0
  2 10  1  0
 10 11  1  0
 11 12  1  0
 12 13  1  0
 13 14  1  6
 13 15  1  0
 15 16  1  0
 16 17  1  0
 17 18  2  0
 18 19  1  0
 19 20  1  0
 20 21  1  0
 21 22  1  0
 22 23  1  0
 22 24  1  0
 24 25  1  0
 24 26  1  0
 19 27  1  0
 27 28  1  1
 27 29  1  0
 29 30  1  0
 30 31  1  0
 31 32  1  1
  7  5  1  0
 31 10  1  0
 31 13  1  0
 27 15  1  0
 24 18  1  0
  1 33  1  0
  1 34  1  0
  1 35  1  0
  2 36  1  6
  3 37  1  0
  3 38  1  0
  4 39  1  0
  4 40  1  0
  5 41  1  6
  8 42  1  0
  8 43  1  0
  8 44  1  0
  9 45  1  0
  9 46  1  0
  9 47  1  0
 10 48  1  6
 11 49  1  0
 11 50  1  0
 12 51  1  0
 12 52  1  0
 14 53  1  0
 14 54  1  0
 14 55  1  0
 15 56  1  1
 16 57  1  0
 16 58  1  0
 17 59  1  0
 19 60  1  6
 20 61  1  0
 20 62  1  0
 21 63  1  0
 21 64  1  0
 22 65  1  6
 23 66  1  0
 25 67  1  0
 25 68  1  0
 25 69  1  0
 26 70  1  0
 26 71  1  0
 26 72  1  0
 28 73  1  0
 28 74  1  0
 28 75  1  0
 29 76  1  0
 29 77  1  0
 30 78  1  0
 30 79  1  0
 32 80  1  0
 32 81  1  0
 32 82  1  0
M  END
>  <meeko>  (16) 
{"is_sidechain": [false], "intermolecular_energy": 2.731, "internal_energy": -0.839}

$$$$
EPH_relaxed_0001_pdb2pqr_Repair_323_r2_0001_out
     RDKit          3D

 82 86  0  0  0  0  0  0  0  0999 V2000
    0.0670   10.2000    1.7760 C   0  0  0  0  0  0  0  0  0  0  0  0
    0.3890   10.4100    0.2940 C   0  0  2  0  0  0  0  0  0  0  0  0
    0.9220    9.1260   -0.3730 C   0  0  0  0  0  0  0  0  0  0  0  0
    0.1360    8.7070   -1.6180 C   0  0  0  0  0  0  0  0  0  0  0  0
   -1.2410    8.2270   -1.2690 C   0  0  2  0  0  0  0  0  0  0  0  0
   -2.2330    8.4760   -2.2730 O   0  0  0  0  0  0  0  0  0  0  0  0
   -2.4130    9.1580   -1.0210 C   0  0  0  0  0  0  0  0  0  0  0  0
   -2.2620   10.6440   -1.1110 C   0  0  0  0  0  0  0  0  0  0  0  0
   -3.5710    8.6520   -0.2200 C   0  0  0  0  0  0  0  0  0  0  0  0
    1.4030   11.5380    0.1370 C   0  0  1  0  0  0  0  0  0  0  0  0
    2.7160   11.0690   -0.5440 C   0  0  0  0  0  0  0  0  0  0  0  0
    3.2170   12.2530   -1.4110 C   0  0  0  0  0  0  0  0  0  0  0  0
    2.3700   13.4620   -0.9480 C   0  0  1  0  0  0  0  0  0  0  0  0
    3.0650   13.9600    0.3580 C   0  0  0  0  0  0  0  0  0  0  0  0
    2.1920   14.6180   -1.9840 C   0  0  2  0  0  0  0  0  0  0  0  0
    3.4930   15.3230   -2.4070 C   0  0  0  0  0  0  0  0  0  0  0  0
    3.8770   16.5040   -1.5770 C   0  0  0  0  0  0  0  0  0  0  0  0
    3.0680   17.1520   -0.7190 C   0  0  0  0  0  0  0  0  0  0  0  0
    1.5890   16.7690   -0.5870 C   0  0  1  0  0  0  0  0  0  0  0  0
    0.7180   18.0520   -0.6040 C   0  0  0  0  0  0  0  0  0  0  0  0
    1.1530   19.0690    0.4470 C   0  0  0  0  0  0  0  0  0  0  0  0
    2.6120   19.4690    0.2480 C   0  0  2  0  0  0  0  0  0  0  0  0
    2.7290   20.1890   -0.9830 O   0  0  0  0  0  0  0  0  0  0  0  0
    3.5840   18.2560    0.2370 C   0  0  0  0  0  0  0  0  0  0  0  0
    3.6840   17.6570    1.6620 C   0  0  0  0  0  0  0  0  0  0  0  0
    5.0020   18.7830   -0.1130 C   0  0  0  0  0  0  0  0  0  0  0  0
    1.0660   15.6630   -1.6020 C   0  0  1  0  0  0  0  0  0  0  0  0
    0.6120   16.3350   -2.9340 C   0  0  0  0  0  0  0  0  0  0  0  0
   -0.2110   14.9710   -0.9960 C   0  0  0  0  0  0  0  0  0  0  0  0
    0.0260   13.7600   -0.0740 C   0  0  0  0  0  0  0  0  0  0  0  0
    0.9840   12.7560   -0.7240 C   0  0  2  0  0  0  0  0  0  0  0  0
    0.3020   12.2200   -2.0290 C   0  0  0  0  0  0  0  0  0  0  0  0
    0.8307   10.6981    2.3913 H   0  0  0  0  0  0  0  0  0  0  0  0
   -0.9212   10.6278    2.0007 H   0  0  0  0  0  0  0  0  0  0  0  0
    0.0601    9.1232    2.0007 H   0  0  0  0  0  0  0  0  0  0  0  0
   -0.5492   10.6798   -0.2129 H   0  0  0  0  0  0  0  0  0  0  0  0
    1.9692    9.2950   -0.6641 H   0  0  0  0  0  0  0  0  0  0  0  0
    0.8162    8.3144    0.3620 H   0  0  0  0  0  0  0  0  0  0  0  0
    0.0518    9.5708   -2.2939 H   0  0  0  0  0  0  0  0  0  0  0  0
    0.6754    7.8792   -2.1016 H   0  0  0  0  0  0  0  0  0  0  0  0
   -0.8280    7.3898   -0.6871 H   0  0  0  0  0  0  0  0  0  0  0  0
   -2.2187   11.0702   -0.0978 H   0  0  0  0  0  0  0  0  0  0  0  0
   -1.3346   10.8863   -1.6507 H   0  0  0  0  0  0  0  0  0  0  0  0
   -3.1217   11.0679   -1.6507 H   0  0  0  0  0  0  0  0  0  0  0  0
   -3.3460    8.7503    0.8522 H   0  0  0  0  0  0  0  0  0  0  0  0
   -4.4688    9.2398   -0.4617 H   0  0  0  0  0  0  0  0  0  0  0  0
   -3.7496    7.5938   -0.4617 H   0  0  0  0  0  0  0  0  0  0  0  0
    1.5083   11.8400    1.1895 H   0  0  0  0  0  0  0  0  0  0  0  0
    3.4672   10.8125    0.2175 H   0  0  0  0  0  0  0  0  0  0  0  0
    2.5441   10.1735   -1.1593 H   0  0  0  0  0  0  0  0  0  0  0  0
    4.2869   12.4381   -1.2345 H   0  0  0  0  0  0  0  0  0  0  0  0
    3.1092   12.0562   -2.4879 H   0  0  0  0  0  0  0  0  0  0  0  0
    2.5229   13.5716    1.2328 H   0  0  0  0  0  0  0  0  0  0  0  0
    4.1040   13.5996    0.3807 H   0  0  0  0  0  0  0  0  0  0  0  0
    3.0578   15.0597    0.3807 H   0  0  0  0  0  0  0  0  0  0  0  0
    1.8402   14.0811   -2.8773 H   0  0  0  0  0  0  0  0  0  0  0  0
    4.3105   14.5891   -2.3528 H   0  0  0  0  0  0  0  0  0  0  0  0
    3.3143   15.7089   -3.4215 H   0  0  0  0  0  0  0  0  0  0  0  0
    4.9078   16.8752   -1.6755 H   0  0  0  0  0  0  0  0  0  0  0  0
    1.4914   16.2647    0.3857 H   0  0  0  0  0  0  0  0  0  0  0  0
    0.7950   18.5172   -1.5978 H   0  0  0  0  0  0  0  0  0  0  0  0
   -0.3163   17.7562   -0.3742 H   0  0  0  0  0  0  0  0  0  0  0  0
    0.5198   19.9647    0.3649 H   0  0  0  0  0  0  0  0  0  0  0  0
    1.0468   18.6126    1.4422 H   0  0  0  0  0  0  0  0  0  0  0  0
    2.9015   20.0957    1.1044 H   0  0  0  0  0  0  0  0  0  0  0  0
    1.8300   20.4070   -1.2830 H   0  0  0  0  0  0  0  0  0  0  0  0
    3.5506   18.4563    2.4059 H   0  0  0  0  0  0  0  0  0  0  0  0
    2.9003   16.8968    1.7960 H   0  0  0  0  0  0  0  0  0  0  0  0
    4.6721   17.1926    1.7960 H   0  0  0  0  0  0  0  0  0  0  0  0
    5.5560   18.9889    0.8148 H   0  0  0  0  0  0  0  0  0  0  0  0
    5.5402   18.0248   -0.7009 H   0  0  0  0  0  0  0  0  0  0  0  0
    4.9144   19.7086   -0.7009 H   0  0  0  0  0  0  0  0  0  0  0  0
    0.0094   17.2270   -2.7079 H   0  0  0  0  0  0  0  0  0  0  0  0
    1.4974   16.6288   -3.5169 H   0  0  0  0  0  0  0  0  0  0  0  0
    0.0090   15.6232   -3.5169 H   0  0  0  0  0  0  0  0  0  0  0  0
   -0.7564   15.7295   -0.4153 H   0  0  0  0  0  0  0  0  0  0  0  0
   -0.7591   14.5705   -1.8616 H   0  0  0  0  0  0  0  0  0  0  0  0
    0.4598   14.1092    0.8746 H   0  0  0  0  0  0  0  0  0  0  0  0
   -0.9378   13.2607    0.1045 H   0  0  0  0  0  0  0  0  0  0  0  0
   -0.5367   11.5609   -1.7603 H   0  0  0  0  0  0  0  0  0  0  0  0
   -0.0730   13.0676   -2.6214 H   0  0  0  0  0  0  0  0  0  0  0  0
    1.0369   11.6553   -2.6214 H   0  0  0  0  0  0  0  0  0  0  0  0
  1  2  1  0
  2  3  1  0
  3  4  1  0
  4  5  1  0
  5  6  1  0
  6  7  1  0
  7  8  1  0
  7  9  1  0
  2 10  1  0
 10 11  1  0
 11 12  1  0
 12 13  1  0
 13 14  1  1
 13 15  1  0
 15 16  1  0
 16 17  1  0
 17 18  2  0
 18 19  1  0
 19 20  1  0
 20 21  1  0
 21 22  1  0
 22 23  1  0
 22 24  1  0
 24 25  1  0
 24 26  1  0
 19 27  1  0
 27 28  1  6
 27 29  1  0
 29 30  1  0
 30 31  1  0
 31 32  1  6
  7  5  1  0
 31 10  1  0
 31 13  1  0
 27 15  1  0
 24 18  1  0
  1 33  1  0
  1 34  1  0
  1 35  1  0
  2 36  1  6
  3 37  1  0
  3 38  1  0
  4 39  1  0
  4 40  1  0
  5 41  1  1
  8 42  1  0
  8 43  1  0
  8 44  1  0
  9 45  1  0
  9 46  1  0
  9 47  1  0
 10 48  1  1
 11 49  1  0
 11 50  1  0
 12 51  1  0
 12 52  1  0
 14 53  1  0
 14 54  1  0
 14 55  1  0
 15 56  1  6
 16 57  1  0
 16 58  1  0
 17 59  1  0
 19 60  1  1
 20 61  1  0
 20 62  1  0
 21 63  1  0
 21 64  1  0
 22 65  1  1
 23 66  1  0
 25 67  1  0
 25 68  1  0
 25 69  1  0
 26 70  1  0
 26 71  1  0
 26 72  1  0
 28 73  1  0
 28 74  1  0
 28 75  1  0
 29 76  1  0
 29 77  1  0
 30 78  1  0
 30 79  1  0
 32 80  1  0
 32 81  1  0
 32 82  1  0
M  END
>  <meeko>  (17) 
{"is_sidechain": [false], "intermolecular_energy": 2.731, "internal_energy": -0.839}

$$$$
EPH_relaxed_0001_pdb2pqr_Repair_323_r2_0001_out
     RDKit          3D

 82 86  0  0  0  0  0  0  0  0999 V2000
    4.5620   16.8800   -1.4950 C   0  0  0  0  0  0  0  0  0  0  0  0
    4.6570   15.3530   -1.5520 C   0  0  2  0  0  0  0  0  0  0  0  0
    5.0220   14.8460   -2.9610 C   0  0  0  0  0  0  0  0  0  0  0  0
    5.9450   13.6240   -2.9560 C   0  0  0  0  0  0  0  0  0  0  0  0
    5.5340   12.6140   -3.9850 C   0  0  2  0  0  0  0  0  0  0  0  0
    5.0660   11.3700   -3.4480 O   0  0  0  0  0  0  0  0  0  0  0  0
    6.2760   11.3120   -4.2210 C   0  0  0  0  0  0  0  0  0  0  0  0
    7.4900   10.9500   -3.4250 C   0  0  0  0  0  0  0  0  0  0  0  0
    6.1140   10.6260   -5.5420 C   0  0  0  0  0  0  0  0  0  0  0  0
    3.3410   14.7330   -1.0990 C   0  0  1  0  0  0  0  0  0  0  0  0
    2.3310   15.7900   -0.5780 C   0  0  0  0  0  0  0  0  0  0  0  0
    0.9180   15.2990   -0.9880 C   0  0  0  0  0  0  0  0  0  0  0  0
    1.1290   13.8320   -1.4310 C   0  0  1  0  0  0  0  0  0  0  0  0
    1.1660   13.0130   -0.1030 C   0  0  0  0  0  0  0  0  0  0  0  0
    0.0780   13.2550   -2.4350 C   0  0  2  0  0  0  0  0  0  0  0  0
   -1.3650   13.1920   -1.9050 C   0  0  0  0  0  0  0  0  0  0  0  0
   -1.7370   11.9180   -1.2210 C   0  0  0  0  0  0  0  0  0  0  0  0
   -1.0470   10.7650   -1.2850 C   0  0  0  0  0  0  0  0  0  0  0  0
    0.1870   10.6350   -2.1880 C   0  0  1  0  0  0  0  0  0  0  0  0
    0.1040    9.3110   -2.9920 C   0  0  0  0  0  0  0  0  0  0  0  0
   -0.0940    8.0930   -2.0940 C   0  0  0  0  0  0  0  0  0  0  0  0
   -1.3610    8.2330   -1.2560 C   0  0  2  0  0  0  0  0  0  0  0  0
   -2.4970    8.1960   -2.1260 O   0  0  0  0  0  0  0  0  0  0  0  0
   -1.3950    9.5360   -0.4090 C   0  0  0  0  0  0  0  0  0  0  0  0
   -0.3520    9.4420    0.7320 C   0  0  0  0  0  0  0  0  0  0  0  0
   -2.7840    9.6240    0.2780 C   0  0  0  0  0  0  0  0  0  0  0  0
    0.5070   11.8890   -3.1090 C   0  0  1  0  0  0  0  0  0  0  0  0
   -0.2880   11.7840   -4.4470 C   0  0  0  0  0  0  0  0  0  0  0  0
    2.0330   11.8670   -3.4970 C   0  0  0  0  0  0  0  0  0  0  0  0
    3.0080   12.5570   -2.5230 C   0  0  0  0  0  0  0  0  0  0  0  0
    2.5160   13.9610   -2.1590 C   0  0  2  0  0  0  0  0  0  0  0  0
    2.4900   14.8140   -3.4730 C   0  0  0  0  0  0  0  0  0  0  0  0
    4.5416   17.2072   -0.4450 H   0  0  0  0  0  0  0  0  0  0  0  0
    5.4345   17.3207   -1.9995 H   0  0  0  0  0  0  0  0  0  0  0  0
    3.6416   17.2092   -1.9995 H   0  0  0  0  0  0  0  0  0  0  0  0
    5.4653   15.0462   -0.8719 H   0  0  0  0  0  0  0  0  0  0  0  0
    4.0928   14.5771   -3.4848 H   0  0  0  0  0  0  0  0  0  0  0  0
    5.5673   15.6585   -3.4636 H   0  0  0  0  0  0  0  0  0  0  0  0
    6.9727   13.9527   -3.1698 H   0  0  0  0  0  0  0  0  0  0  0  0
    5.8806   13.1499   -1.9655 H   0  0  0  0  0  0  0  0  0  0  0  0
    5.2039   13.4094   -4.6693 H   0  0  0  0  0  0  0  0  0  0  0  0
    7.2588   11.0190   -2.3518 H   0  0  0  0  0  0  0  0  0  0  0  0
    7.7953    9.9218   -3.6690 H   0  0  0  0  0  0  0  0  0  0  0  0
    8.3086   11.6431   -3.6690 H   0  0  0  0  0  0  0  0  0  0  0  0
    5.8640    9.5675   -5.3773 H   0  0  0  0  0  0  0  0  0  0  0  0
    5.3054   11.1097   -6.1096 H   0  0  0  0  0  0  0  0  0  0  0  0
    7.0536   10.6968   -6.1096 H   0  0  0  0  0  0  0  0  0  0  0  0
    3.7185   14.0364   -0.3360 H   0  0  0  0  0  0  0  0  0  0  0  0
    2.4004   15.8729    0.5167 H   0  0  0  0  0  0  0  0  0  0  0  0
    2.5431   16.7821   -1.0031 H   0  0  0  0  0  0  0  0  0  0  0  0
    0.2258   15.3514   -0.1347 H   0  0  0  0  0  0  0  0  0  0  0  0
    0.4763   15.9162   -1.7842 H   0  0  0  0  0  0  0  0  0  0  0  0
    1.1349   13.7022    0.7538 H   0  0  0  0  0  0  0  0  0  0  0  0
    0.2974   12.3393   -0.0634 H   0  0  0  0  0  0  0  0  0  0  0  0
    2.0918   12.4203   -0.0634 H   0  0  0  0  0  0  0  0  0  0  0  0
    0.0705   14.0146   -3.2306 H   0  0  0  0  0  0  0  0  0  0  0  0
   -1.5002   14.0151   -1.1879 H   0  0  0  0  0  0  0  0  0  0  0  0
   -2.0174   13.2659   -2.7876 H   0  0  0  0  0  0  0  0  0  0  0  0
   -2.6536   11.9226   -0.6128 H   0  0  0  0  0  0  0  0  0  0  0  0
    1.0554   10.6077   -1.5134 H   0  0  0  0  0  0  0  0  0  0  0  0
   -0.7430    9.3753   -3.6909 H   0  0  0  0  0  0  0  0  0  0  0  0
    1.0584    9.1825   -3.5236 H   0  0  0  0  0  0  0  0  0  0  0  0
   -0.1749    7.1929   -2.7211 H   0  0  0  0  0  0  0  0  0  0  0  0
    0.7683    8.0133   -1.4157 H   0  0  0  0  0  0  0  0  0  0  0  0
   -1.3785    7.3948   -0.5438 H   0  0  0  0  0  0  0  0  0  0  0  0
   -2.7800    7.2690   -2.2010 H   0  0  0  0  0  0  0  0  0  0  0  0
   -0.8660    9.4883    1.7034 H   0  0  0  0  0  0  0  0  0  0  0  0
    0.1948    8.4909    0.6515 H   0  0  0  0  0  0  0  0  0  0  0  0
    0.3560   10.2800    0.6515 H   0  0  0  0  0  0  0  0  0  0  0  0
   -2.6540    9.6158    1.3703 H   0  0  0  0  0  0  0  0  0  0  0  0
   -3.2844   10.5556   -0.0247 H   0  0  0  0  0  0  0  0  0  0  0  0
   -3.3980    8.7630   -0.0247 H   0  0  0  0  0  0  0  0  0  0  0  0
   -1.3568   11.6428   -4.2284 H   0  0  0  0  0  0  0  0  0  0  0  0
   -0.1515   12.7080   -5.0281 H   0  0  0  0  0  0  0  0  0  0  0  0
    0.0837   10.9271   -5.0281 H   0  0  0  0  0  0  0  0  0  0  0  0
    2.3391   10.8140   -3.5839 H   0  0  0  0  0  0  0  0  0  0  0  0
    2.1010   12.4455   -4.4301 H   0  0  0  0  0  0  0  0  0  0  0  0
    3.0876   11.9545   -1.6061 H   0  0  0  0  0  0  0  0  0  0  0  0
    3.9894   12.6447   -3.0120 H   0  0  0  0  0  0  0  0  0  0  0  0
    2.4574   15.8830   -3.2156 H   0  0  0  0  0  0  0  0  0  0  0  0
    3.3949   14.6063   -4.0629 H   0  0  0  0  0  0  0  0  0  0  0  0
    1.5994   14.5516   -4.0629 H   0  0  0  0  0  0  0  0  0  0  0  0
  1  2  1  0
  2  3  1  0
  3  4  1  0
  4  5  1  0
  5  6  1  0
  6  7  1  0
  7  8  1  0
  7  9  1  0
  2 10  1  0
 10 11  1  0
 11 12  1  0
 12 13  1  0
 13 14  1  1
 13 15  1  0
 15 16  1  0
 16 17  1  0
 17 18  2  0
 18 19  1  0
 19 20  1  0
 20 21  1  0
 21 22  1  0
 22 23  1  0
 22 24  1  0
 24 25  1  0
 24 26  1  0
 19 27  1  0
 27 28  1  6
 27 29  1  0
 29 30  1  0
 30 31  1  0
 31 32  1  6
  7  5  1  0
 31 10  1  0
 31 13  1  0
 27 15  1  0
 24 18  1  0
  1 33  1  0
  1 34  1  0
  1 35  1  0
  2 36  1  1
  3 37  1  0
  3 38  1  0
  4 39  1  0
  4 40  1  0
  5 41  1  6
  8 42  1  0
  8 43  1  0
  8 44  1  0
  9 45  1  0
  9 46  1  0
  9 47  1  0
 10 48  1  1
 11 49  1  0
 11 50  1  0
 12 51  1  0
 12 52  1  0
 14 53  1  0
 14 54  1  0
 14 55  1  0
 15 56  1  6
 16 57  1  0
 16 58  1  0
 17 59  1  0
 19 60  1  1
 20 61  1  0
 20 62  1  0
 21 63  1  0
 21 64  1  0
 22 65  1  1
 23 66  1  0
 25 67  1  0
 25 68  1  0
 25 69  1  0
 26 70  1  0
 26 71  1  0
 26 72  1  0
 28 73  1  0
 28 74  1  0
 28 75  1  0
 29 76  1  0
 29 77  1  0
 30 78  1  0
 30 79  1  0
 32 80  1  0
 32 81  1  0
 32 82  1  0
M  END
>  <meeko>  (18) 
{"is_sidechain": [false], "intermolecular_energy": 2.731, "internal_energy": -0.839}

$$$$
EPH_relaxed_0001_pdb2pqr_Repair_323_r2_0001_out
     RDKit          3D

 82 86  0  0  0  0  0  0  0  0999 V2000
   -0.2680   10.3460   -2.2230 C   0  0  0  0  0  0  0  0  0  0  0  0
    0.6380   10.2320   -0.9940 C   0  0  2  0  0  0  0  0  0  0  0  0
   -0.1690   10.1470    0.3170 C   0  0  0  0  0  0  0  0  0  0  0  0
    0.5920   10.6610    1.5430 C   0  0  0  0  0  0  0  0  0  0  0  0
   -0.1600   11.7510    2.2450 C   0  0  2  0  0  0  0  0  0  0  0  0
    0.4510   13.0450    2.1670 O   0  0  0  0  0  0  0  0  0  0  0  0
    0.3590   12.4650    3.4780 C   0  0  0  0  0  0  0  0  0  0  0  0
    1.6830   12.1160    4.0830 C   0  0  0  0  0  0  0  0  0  0  0  0
   -0.6230   13.1520    4.3740 C   0  0  0  0  0  0  0  0  0  0  0  0
    1.5930   11.4190   -0.9410 C   0  0  1  0  0  0  0  0  0  0  0  0
    2.9450   11.1300   -1.6470 C   0  0  0  0  0  0  0  0  0  0  0  0
    3.4000   12.4600   -2.3020 C   0  0  0  0  0  0  0  0  0  0  0  0
    2.4800   13.5360   -1.6800 C   0  0  1  0  0  0  0  0  0  0  0  0
    3.1180   13.8550   -0.2920 C   0  0  0  0  0  0  0  0  0  0  0  0
    2.2630   14.8320   -2.5270 C   0  0  2  0  0  0  0  0  0  0  0  0
    3.5330   15.6580   -2.7940 C   0  0  0  0  0  0  0  0  0  0  0  0
    3.8350   16.7100   -1.7790 C   0  0  0  0  0  0  0  0  0  0  0  0
    2.9740   17.1740   -0.8530 C   0  0  0  0  0  0  0  0  0  0  0  0
    1.5150   16.7020   -0.8290 C   0  0  1  0  0  0  0  0  0  0  0  0
    0.5770   17.9270   -0.6700 C   0  0  0  0  0  0  0  0  0  0  0  0
    0.9330   18.7850    0.5400 C   0  0  0  0  0  0  0  0  0  0  0  0
    2.3740   19.2830    0.4500 C   0  0  2  0  0  0  0  0  0  0  0  0
    2.4780   20.1940   -0.6480 O   0  0  0  0  0  0  0  0  0  0  0  0
    3.4090   18.1360    0.2790 C   0  0  0  0  0  0  0  0  0  0  0  0
    3.5100   17.3250    1.5940 C   0  0  0  0  0  0  0  0  0  0  0  0
    4.8040   18.7820    0.0590 C   0  0  0  0  0  0  0  0  0  0  0  0
    1.0750   15.7460   -2.0200 C   0  0  1  0  0  0  0  0  0  0  0  0
    0.6140   16.5980   -3.2430 C   0  0  0  0  0  0  0  0  0  0  0  0
   -0.1770   14.9050   -1.5680 C   0  0  0  0  0  0  0  0  0  0  0  0
    0.1050   13.5760   -0.8420 C   0  0  0  0  0  0  0  0  0  0  0  0
    1.1290   12.7360   -1.6120 C   0  0  2  0  0  0  0  0  0  0  0  0
    0.5060   12.3810   -3.0050 C   0  0  0  0  0  0  0  0  0  0  0  0
   -1.3109   10.4772   -1.8988 H   0  0  0  0  0  0  0  0  0  0  0  0
    0.0401   11.2125   -2.8266 H   0  0  0  0  0  0  0  0  0  0  0  0
   -0.1841    9.4302   -2.8266 H   0  0  0  0  0  0  0  0  0  0  0  0
    1.2102    9.2975   -1.0905 H   0  0  0  0  0  0  0  0  0  0  0  0
   -1.0846   10.7454    0.2006 H   0  0  0  0  0  0  0  0  0  0  0  0
   -0.3829    9.0827    0.4944 H   0  0  0  0  0  0  0  0  0  0  0  0
    0.7461    9.8264    2.2428 H   0  0  0  0  0  0  0  0  0  0  0  0
    1.5537   11.0722    1.2023 H   0  0  0  0  0  0  0  0  0  0  0  0
   -1.1206   11.2621    2.0255 H   0  0  0  0  0  0  0  0  0  0  0  0
    1.6020   12.1374    5.1798 H   0  0  0  0  0  0  0  0  0  0  0  0
    1.9810   11.1086    3.7569 H   0  0  0  0  0  0  0  0  0  0  0  0
    2.4389   12.8456    3.7569 H   0  0  0  0  0  0  0  0  0  0  0  0
   -0.3548   12.9644    5.4242 H   0  0  0  0  0  0  0  0  0  0  0  0
   -0.6032   14.2343    4.1782 H   0  0  0  0  0  0  0  0  0  0  0  0
   -1.6329   12.7624    4.1782 H   0  0  0  0  0  0  0  0  0  0  0  0
    1.6580   11.5545    0.1487 H   0  0  0  0  0  0  0  0  0  0  0  0
    3.6919   10.7944   -0.9125 H   0  0  0  0  0  0  0  0  0  0  0  0
    2.8359   10.3356   -2.4000 H   0  0  0  0  0  0  0  0  0  0  0  0
    4.4544   12.6677   -2.0672 H   0  0  0  0  0  0  0  0  0  0  0  0
    3.3259   12.4314   -3.3991 H   0  0  0  0  0  0  0  0  0  0  0  0
    2.4429   13.5174    0.5082 H   0  0  0  0  0  0  0  0  0  0  0  0
    4.0821   13.3329   -0.2029 H   0  0  0  0  0  0  0  0  0  0  0  0
    3.2788   14.9395   -0.2029 H   0  0  0  0  0  0  0  0  0  0  0  0
    1.9600   14.4269   -3.5038 H   0  0  0  0  0  0  0  0  0  0  0  0
    4.3871   14.9658   -2.8304 H   0  0  0  0  0  0  0  0  0  0  0  0
    3.3563   16.1902   -3.7403 H   0  0  0  0  0  0  0  0  0  0  0  0
    4.8462   17.1429   -1.7881 H   0  0  0  0  0  0  0  0  0  0  0  0
    1.4226   16.0450    0.0484 H   0  0  0  0  0  0  0  0  0  0  0  0
    0.6507   18.5471   -1.5756 H   0  0  0  0  0  0  0  0  0  0  0  0
   -0.4445   17.5474   -0.5204 H   0  0  0  0  0  0  0  0  0  0  0  0
    0.2548   19.6501    0.5801 H   0  0  0  0  0  0  0  0  0  0  0  0
    0.8288   18.1727    1.4479 H   0  0  0  0  0  0  0  0  0  0  0  0
    2.6123   19.7798    1.4021 H   0  0  0  0  0  0  0  0  0  0  0  0
    3.3500   20.6220   -0.5930 H   0  0  0  0  0  0  0  0  0  0  0  0
    3.4251   18.0070    2.4529 H   0  0  0  0  0  0  0  0  0  0  0  0
    2.6971   16.5849    1.6317 H   0  0  0  0  0  0  0  0  0  0  0  0
    4.4796   16.8069    1.6317 H   0  0  0  0  0  0  0  0  0  0  0  0
    5.2667   18.9963    1.0337 H   0  0  0  0  0  0  0  0  0  0  0  0
    5.4441   18.0887   -0.5063 H   0  0  0  0  0  0  0  0  0  0  0  0
    4.6893   19.7187   -0.5063 H   0  0  0  0  0  0  0  0  0  0  0  0
    0.1188   17.5132   -2.8865 H   0  0  0  0  0  0  0  0  0  0  0  0
    1.4890   16.8681   -3.8524 H   0  0  0  0  0  0  0  0  0  0  0  0
   -0.0908   16.0133   -3.8524 H   0  0  0  0  0  0  0  0  0  0  0  0
   -0.7737   15.5340   -0.8911 H   0  0  0  0  0  0  0  0  0  0  0  0
   -0.6855   14.6212   -2.5012 H   0  0  0  0  0  0  0  0  0  0  0  0
    0.4987   13.7913    0.1623 H   0  0  0  0  0  0  0  0  0  0  0  0
   -0.8344   13.0077   -0.7742 H   0  0  0  0  0  0  0  0  0  0  0  0
   -0.4410   11.8414   -2.8564 H   0  0  0  0  0  0  0  0  0  0  0  0
    0.3161   13.3065   -3.5683 H   0  0  0  0  0  0  0  0  0  0  0  0
    1.2054   11.7458   -3.5683 H   0  0  0  0  0  0  0  0  0  0  0  0
  1  2  1  0
  2  3  1  0
  3  4  1  0
  4  5  1  0
  5  6  1  0
  6  7  1  0
  7  8  1  0
  7  9  1  0
  2 10  1  0
 10 11  1  0
 11 12  1  0
 12 13  1  0
 13 14  1  1
 13 15  1  0
 15 16  1  0
 16 17  1  0
 17 18  2  0
 18 19  1  0
 19 20  1  0
 20 21  1  0
 21 22  1  0
 22 23  1  0
 22 24  1  0
 24 25  1  0
 24 26  1  0
 19 27  1  0
 27 28  1  6
 27 29  1  0
 29 30  1  0
 30 31  1  0
 31 32  1  6
  7  5  1  0
 31 10  1  0
 31 13  1  0
 27 15  1  0
 24 18  1  0
  1 33  1  0
  1 34  1  0
  1 35  1  0
  2 36  1  6
  3 37  1  0
  3 38  1  0
  4 39  1  0
  4 40  1  0
  5 41  1  1
  8 42  1  0
  8 43  1  0
  8 44  1  0
  9 45  1  0
  9 46  1  0
  9 47  1  0
 10 48  1  1
 11 49  1  0
 11 50  1  0
 12 51  1  0
 12 52  1  0
 14 53  1  0
 14 54  1  0
 14 55  1  0
 15 56  1  6
 16 57  1  0
 16 58  1  0
 17 59  1  0
 19 60  1  1
 20 61  1  0
 20 62  1  0
 21 63  1  0
 21 64  1  0
 22 65  1  1
 23 66  1  0
 25 67  1  0
 25 68  1  0
 25 69  1  0
 26 70  1  0
 26 71  1  0
 26 72  1  0
 28 73  1  0
 28 74  1  0
 28 75  1  0
 29 76  1  0
 29 77  1  0
 30 78  1  0
 30 79  1  0
 32 80  1  0
 32 81  1  0
 32 82  1  0
M  END
>  <meeko>  (19) 
{"is_sidechain": [false], "intermolecular_energy": 2.731, "internal_energy": -0.839}

$$$$
