EPH_relaxed_0001_pdb2pqr_Repair_360_r2_0001_out
     RDKit          3D

 82 86  0  0  0  0  0  0  0  0999 V2000
   -2.1650   14.3800    0.7120 C   0  0  0  0  0  0  0  0  0  0  0  0
   -0.8350   15.1340    0.8080 C   0  0  2  0  0  0  0  0  0  0  0  0
   -0.8030   16.3720   -0.1110 C   0  0  0  0  0  0  0  0  0  0  0  0
   -1.4190   17.6230    0.5200 C   0  0  0  0  0  0  0  0  0  0  0  0
   -0.4410   18.7580    0.5700 C   0  0  2  0  0  0  0  0  0  0  0  0
   -0.9590   20.0150    0.1150 O   0  0  0  0  0  0  0  0  0  0  0  0
    0.1040   19.4480   -0.6670 C   0  0  0  0  0  0  0  0  0  0  0  0
   -0.3100   19.0260   -2.0420 C   0  0  0  0  0  0  0  0  0  0  0  0
    1.3970   20.1940   -0.5580 C   0  0  0  0  0  0  0  0  0  0  0  0
    0.3180   14.1990    0.4640 C   0  0  1  0  0  0  0  0  0  0  0  0
    0.6150   13.1770    1.5930 C   0  0  0  0  0  0  0  0  0  0  0  0
    1.0590   11.8620    0.9000 C   0  0  0  0  0  0  0  0  0  0  0  0
    1.3210   12.2650   -0.5700 C   0  0  1  0  0  0  0  0  0  0  0  0
    2.7510   12.8920   -0.5640 C   0  0  0  0  0  0  0  0  0  0  0  0
    1.1950   11.1250   -1.6320 C   0  0  2  0  0  0  0  0  0  0  0  0
    2.1950    9.9670   -1.4680 C   0  0  0  0  0  0  0  0  0  0  0  0
    3.4830   10.1270   -2.2050 C   0  0  0  0  0  0  0  0  0  0  0  0
    3.7160   11.0150   -3.1890 C   0  0  0  0  0  0  0  0  0  0  0  0
    2.5920   11.9120   -3.7230 C   0  0  1  0  0  0  0  0  0  0  0  0
    2.6110   11.9010   -5.2740 C   0  0  0  0  0  0  0  0  0  0  0  0
    3.9760   12.2740   -5.8440 C   0  0  0  0  0  0  0  0  0  0  0  0
    5.0580   11.3240   -5.3370 C   0  0  2  0  0  0  0  0  0  0  0  0
    4.8150   10.0200   -5.8750 O   0  0  0  0  0  0  0  0  0  0  0  0
    5.1260   11.2450   -3.7860 C   0  0  0  0  0  0  0  0  0  0  0  0
    5.6820   12.5760   -3.2210 C   0  0  0  0  0  0  0  0  0  0  0  0
    6.1590   10.1480   -3.4090 C   0  0  0  0  0  0  0  0  0  0  0  0
    1.1430   11.6360   -3.1290 C   0  0  1  0  0  0  0  0  0  0  0  0
    0.4330   10.5210   -3.9560 C   0  0  0  0  0  0  0  0  0  0  0  0
    0.2670   12.9340   -3.2880 C   0  0  0  0  0  0  0  0  0  0  0  0
    0.3430   13.9680   -2.1480 C   0  0  0  0  0  0  0  0  0  0  0  0
    0.1550   13.2970   -0.7850 C   0  0  2  0  0  0  0  0  0  0  0  0
   -1.2840   12.6760   -0.7520 C   0  0  0  0  0  0  0  0  0  0  0  0
   -2.5399   14.1675    1.7241 H   0  0  0  0  0  0  0  0  0  0  0  0
   -2.8980   14.9969    0.1715 H   0  0  0  0  0  0  0  0  0  0  0  0
   -2.0121   13.4342    0.1715 H   0  0  0  0  0  0  0  0  0  0  0  0
   -0.7286   15.4889    1.8437 H   0  0  0  0  0  0  0  0  0  0  0  0
    0.2452   16.5904   -0.3630 H   0  0  0  0  0  0  0  0  0  0  0  0
   -1.4062   16.1293   -0.9982 H   0  0  0  0  0  0  0  0  0  0  0  0
   -2.2912   17.9301   -0.0757 H   0  0  0  0  0  0  0  0  0  0  0  0
   -1.7125   17.3777    1.5514 H   0  0  0  0  0  0  0  0  0  0  0  0
    0.0539   18.3239    1.4513 H   0  0  0  0  0  0  0  0  0  0  0  0
   -1.0787   18.2425   -1.9692 H   0  0  0  0  0  0  0  0  0  0  0  0
   -0.7189   19.8917   -2.5837 H   0  0  0  0  0  0  0  0  0  0  0  0
    0.5633   18.6337   -2.5837 H   0  0  0  0  0  0  0  0  0  0  0  0
    1.6483   20.3390    0.5030 H   0  0  0  0  0  0  0  0  0  0  0  0
    2.1953   19.6177   -1.0485 H   0  0  0  0  0  0  0  0  0  0  0  0
    1.2976   21.1736   -1.0485 H   0  0  0  0  0  0  0  0  0  0  0  0
    1.1111   14.9411    0.2899 H   0  0  0  0  0  0  0  0  0  0  0  0
    1.4190   13.5531    2.2427 H   0  0  0  0  0  0  0  0  0  0  0  0
   -0.2731   13.0125    2.2209 H   0  0  0  0  0  0  0  0  0  0  0  0
    1.9755   11.4687    1.3641 H   0  0  0  0  0  0  0  0  0  0  0  0
    0.3020   11.0687    0.9865 H   0  0  0  0  0  0  0  0  0  0  0  0
    3.0831   13.0376    0.4745 H   0  0  0  0  0  0  0  0  0  0  0  0
    3.4493   12.2175   -1.0811 H   0  0  0  0  0  0  0  0  0  0  0  0
    2.7280   13.8626   -1.0811 H   0  0  0  0  0  0  0  0  0  0  0  0
    0.2060   10.7002   -1.4053 H   0  0  0  0  0  0  0  0  0  0  0  0
    2.4264    9.8669   -0.3973 H   0  0  0  0  0  0  0  0  0  0  0  0
    1.7066    9.0803   -1.8983 H   0  0  0  0  0  0  0  0  0  0  0  0
    4.3121    9.4628   -1.9197 H   0  0  0  0  0  0  0  0  0  0  0  0
    2.8120   12.9249   -3.3548 H   0  0  0  0  0  0  0  0  0  0  0  0
    2.3468   10.8918   -5.6229 H   0  0  0  0  0  0  0  0  0  0  0  0
    1.8866   12.6519   -5.6225 H   0  0  0  0  0  0  0  0  0  0  0  0
    3.9347   12.2192   -6.9419 H   0  0  0  0  0  0  0  0  0  0  0  0
    4.2249   13.2948   -5.5185 H   0  0  0  0  0  0  0  0  0  0  0  0
    6.0281   11.7185   -5.6737 H   0  0  0  0  0  0  0  0  0  0  0  0
    5.5320    9.8220   -6.5010 H   0  0  0  0  0  0  0  0  0  0  0  0
    5.6678   12.5420   -2.1216 H   0  0  0  0  0  0  0  0  0  0  0  0
    6.7152   12.7193   -3.5701 H   0  0  0  0  0  0  0  0  0  0  0  0
    5.0578   13.4117   -3.5701 H   0  0  0  0  0  0  0  0  0  0  0  0
    6.2303   10.0723   -2.3139 H   0  0  0  0  0  0  0  0  0  0  0  0
    5.8353    9.1817   -3.8230 H   0  0  0  0  0  0  0  0  0  0  0  0
    7.1430   10.4131   -3.8230 H   0  0  0  0  0  0  0  0  0  0  0  0
   -0.0294    9.7948   -3.2713 H   0  0  0  0  0  0  0  0  0  0  0  0
   -0.3438   10.9732   -4.5901 H   0  0  0  0  0  0  0  0  0  0  0  0
    1.1714   10.0084   -4.5901 H   0  0  0  0  0  0  0  0  0  0  0  0
    0.5819   13.4365   -4.2145 H   0  0  0  0  0  0  0  0  0  0  0  0
   -0.7745   12.5801   -3.2863 H   0  0  0  0  0  0  0  0  0  0  0  0
    1.3263   14.4603   -2.1739 H   0  0  0  0  0  0  0  0  0  0  0  0
   -0.4611   14.7052   -2.2895 H   0  0  0  0  0  0  0  0  0  0  0  0
   -1.6005   12.5394    0.2926 H   0  0  0  0  0  0  0  0  0  0  0  0
   -1.9865   13.3511   -1.2627 H   0  0  0  0  0  0  0  0  0  0  0  0
   -1.2747   11.7018   -1.2627 H   0  0  0  0  0  0  0  0  0  0  0  0
  1  2  1  0
  2  3  1  0
  3  4  1  0
  4  5  1  0
  5  6  1  0
  6  7  1  0
  7  8  1  0
  7  9  1  0
  2 10  1  0
 10 11  1  0
 11 12  1  0
 12 13  1  0
 13 14  1  1
 13 15  1  0
 15 16  1  0
 16 17  1  0
 17 18  2  0
 18 19  1  0
 19 20  1  0
 20 21  1  0
 21 22  1  0
 22 23  1  0
 22 24  1  0
 24 25  1  0
 24 26  1  0
 19 27  1  0
 27 28  1  6
 27 29  1  0
 29 30  1  0
 30 31  1  0
 31 32  1  6
  7  5  1  0
 31 10  1  0
 31 13  1  0
 27 15  1  0
 24 18  1  0
  1 33  1  0
  1 34  1  0
  1 35  1  0
  2 36  1  1
  3 37  1  0
  3 38  1  0
  4 39  1  0
  4 40  1  0
  5 41  1  1
  8 42  1  0
  8 43  1  0
  8 44  1  0
  9 45  1  0
  9 46  1  0
  9 47  1  0
 10 48  1  6
 11 49  1  0
 11 50  1  0
 12 51  1  0
 12 52  1  0
 14 53  1  0
 14 54  1  0
 14 55  1  0
 15 56  1  1
 16 57  1  0
 16 58  1  0
 17 59  1  0
 19 60  1  1
 20 61  1  0
 20 62  1  0
 21 63  1  0
 21 64  1  0
 22 65  1  6
 23 66  1  0
 25 67  1  0
 25 68  1  0
 25 69  1  0
 26 70  1  0
 26 71  1  0
 26 72  1  0
 28 73  1  0
 28 74  1  0
 28 75  1  0
 29 76  1  0
 29 77  1  0
 30 78  1  0
 30 79  1  0
 32 80  1  0
 32 81  1  0
 32 82  1  0
M  END
>  <meeko>  (1) 
{"is_sidechain": [false], "intermolecular_energy": 2.731, "internal_energy": -0.839}

$$$$
EPH_relaxed_0001_pdb2pqr_Repair_360_r2_0001_out
     RDKit          3D

 82 86  0  0  0  0  0  0  0  0999 V2000
   -0.8310   18.3800   -0.6370 C   0  0  0  0  0  0  0  0  0  0  0  0
    0.5230   17.8100   -1.0700 C   0  0  2  0  0  0  0  0  0  0  0  0
    1.3050   18.7880   -1.9690 C   0  0  0  0  0  0  0  0  0  0  0  0
    1.7200   20.0790   -1.2590 C   0  0  0  0  0  0  0  0  0  0  0  0
    2.9180   19.8680   -0.3820 C   0  0  2  0  0  0  0  0  0  0  0  0
    2.8750   18.6770    0.4130 O   0  0  0  0  0  0  0  0  0  0  0  0
    2.8650   19.9200    1.1330 C   0  0  0  0  0  0  0  0  0  0  0  0
    1.5850   20.1920    1.8600 C   0  0  0  0  0  0  0  0  0  0  0  0
    4.1310   20.1920    1.8840 C   0  0  0  0  0  0  0  0  0  0  0  0
    0.3210   16.4840   -1.7940 C   0  0  1  0  0  0  0  0  0  0  0  0
    0.5090   16.6070   -3.3300 C   0  0  0  0  0  0  0  0  0  0  0  0
    1.1500   15.2800   -3.8100 C   0  0  0  0  0  0  0  0  0  0  0  0
    1.0050   14.3190   -2.6070 C   0  0  1  0  0  0  0  0  0  0  0  0
   -0.4610   13.7880   -2.6920 C   0  0  0  0  0  0  0  0  0  0  0  0
    2.0390   13.1490   -2.5290 C   0  0  2  0  0  0  0  0  0  0  0  0
    1.9870   12.1530   -3.7000 C   0  0  0  0  0  0  0  0  0  0  0  0
    1.0760   10.9870   -3.5070 C   0  0  0  0  0  0  0  0  0  0  0  0
    0.5470   10.5940   -2.3330 C   0  0  0  0  0  0  0  0  0  0  0  0
    0.9320   11.2920   -1.0220 C   0  0  1  0  0  0  0  0  0  0  0  0
    1.2470   10.2250    0.0590 C   0  0  0  0  0  0  0  0  0  0  0  0
    0.1090    9.2260    0.2430 C   0  0  0  0  0  0  0  0  0  0  0  0
   -0.2060    8.5100   -1.0680 C   0  0  2  0  0  0  0  0  0  0  0  0
    0.9090    7.6870   -1.4230 O   0  0  0  0  0  0  0  0  0  0  0  0
   -0.5290    9.4850   -2.2350 C   0  0  0  0  0  0  0  0  0  0  0  0
   -1.9010   10.1590   -1.9850 C   0  0  0  0  0  0  0  0  0  0  0  0
   -0.6890    8.6430   -3.5290 C   0  0  0  0  0  0  0  0  0  0  0  0
    2.0660   12.4000   -1.1350 C   0  0  1  0  0  0  0  0  0  0  0  0
    3.4720   11.7370   -1.0130 C   0  0  0  0  0  0  0  0  0  0  0  0
    1.9360   13.3930    0.0800 C   0  0  0  0  0  0  0  0  0  0  0  0
    0.9900   14.5950   -0.1030 C   0  0  0  0  0  0  0  0  0  0  0  0
    1.2720   15.3180   -1.4230 C   0  0  2  0  0  0  0  0  0  0  0  0
    2.7320   15.8830   -1.3580 C   0  0  0  0  0  0  0  0  0  0  0  0
   -0.8849   18.4027    0.4614 H   0  0  0  0  0  0  0  0  0  0  0  0
   -0.9418   19.4011   -1.0307 H   0  0  0  0  0  0  0  0  0  0  0  0
   -1.6388   17.7456   -1.0307 H   0  0  0  0  0  0  0  0  0  0  0  0
    1.1204   17.6497   -0.1604 H   0  0  0  0  0  0  0  0  0  0  0  0
    2.2134   18.2807   -2.3261 H   0  0  0  0  0  0  0  0  0  0  0  0
    0.6336   19.0752   -2.7916 H   0  0  0  0  0  0  0  0  0  0  0  0
    1.9614   20.8403   -2.0154 H   0  0  0  0  0  0  0  0  0  0  0  0
    0.8832   20.4061   -0.6243 H   0  0  0  0  0  0  0  0  0  0  0  0
    3.5713   20.3644   -1.1147 H   0  0  0  0  0  0  0  0  0  0  0  0
    1.7641   20.1539    2.9446 H   0  0  0  0  0  0  0  0  0  0  0  0
    1.2118   21.1895    1.5848 H   0  0  0  0  0  0  0  0  0  0  0  0
    0.8385   19.4324    1.5848 H   0  0  0  0  0  0  0  0  0  0  0  0
    3.9324   20.1493    2.9651 H   0  0  0  0  0  0  0  0  0  0  0  0
    4.8841   19.4352    1.6194 H   0  0  0  0  0  0  0  0  0  0  0  0
    4.5068   21.1914    1.6194 H   0  0  0  0  0  0  0  0  0  0  0  0
   -0.7038   16.2515   -1.4690 H   0  0  0  0  0  0  0  0  0  0  0  0
   -0.4645   16.7564   -3.8200 H   0  0  0  0  0  0  0  0  0  0  0  0
    1.1464   17.4673   -3.5821 H   0  0  0  0  0  0  0  0  0  0  0  0
    0.6167   14.8864   -4.6879 H   0  0  0  0  0  0  0  0  0  0  0  0
    2.1986   15.4100   -4.1160 H   0  0  0  0  0  0  0  0  0  0  0  0
   -0.8583   13.6441   -1.6764 H   0  0  0  0  0  0  0  0  0  0  0  0
   -1.0846   14.5174   -3.2297 H   0  0  0  0  0  0  0  0  0  0  0  0
   -0.4728   12.8285   -3.2297 H   0  0  0  0  0  0  0  0  0  0  0  0
    2.9993   13.6763   -2.6275 H   0  0  0  0  0  0  0  0  0  0  0  0
    1.6550   12.6987   -4.5955 H   0  0  0  0  0  0  0  0  0  0  0  0
    3.0006   11.7350   -3.7883 H   0  0  0  0  0  0  0  0  0  0  0  0
    0.8146   10.3990   -4.3992 H   0  0  0  0  0  0  0  0  0  0  0  0
    0.0531   11.8805   -0.7200 H   0  0  0  0  0  0  0  0  0  0  0  0
    2.1527    9.6769   -0.2398 H   0  0  0  0  0  0  0  0  0  0  0  0
    1.3888   10.7498    1.0153 H   0  0  0  0  0  0  0  0  0  0  0  0
    0.4019    8.4818    0.9982 H   0  0  0  0  0  0  0  0  0  0  0  0
   -0.7884    9.7723    0.5690 H   0  0  0  0  0  0  0  0  0  0  0  0
   -1.1100    7.9047   -0.9053 H   0  0  0  0  0  0  0  0  0  0  0  0
    1.2750    8.0310   -2.2560 H   0  0  0  0  0  0  0  0  0  0  0  0
   -2.0755   10.2447   -0.9023 H   0  0  0  0  0  0  0  0  0  0  0  0
   -1.9049   11.1616   -2.4376 H   0  0  0  0  0  0  0  0  0  0  0  0
   -2.6969    9.5493   -2.4376 H   0  0  0  0  0  0  0  0  0  0  0  0
   -0.8882    7.5947   -3.2620 H   0  0  0  0  0  0  0  0  0  0  0  0
   -1.5284    9.0365   -4.1210 H   0  0  0  0  0  0  0  0  0  0  0  0
    0.2363    8.7011   -4.1210 H   0  0  0  0  0  0  0  0  0  0  0  0
    3.7292   11.6157    0.0496 H   0  0  0  0  0  0  0  0  0  0  0  0
    3.4563   10.7514   -1.5013 H   0  0  0  0  0  0  0  0  0  0  0  0
    4.2224   12.3761   -1.5013 H   0  0  0  0  0  0  0  0  0  0  0  0
    1.5769   12.8156    0.9446 H   0  0  0  0  0  0  0  0  0  0  0  0
    2.9376   13.8311    0.2019 H   0  0  0  0  0  0  0  0  0  0  0  0
   -0.0503   14.2375   -0.1036 H   0  0  0  0  0  0  0  0  0  0  0  0
    1.1542   15.3000    0.7252 H   0  0  0  0  0  0  0  0  0  0  0  0
    3.0335   15.9997   -0.3066 H   0  0  0  0  0  0  0  0  0  0  0  0
    3.4179   15.1854   -1.8609 H   0  0  0  0  0  0  0  0  0  0  0  0
    2.7696   16.8606   -1.8609 H   0  0  0  0  0  0  0  0  0  0  0  0
  1  2  1  0
  2  3  1  0
  3  4  1  0
  4  5  1  0
  5  6  1  0
  6  7  1  0
  7  8  1  0
  7  9  1  0
  2 10  1  0
 10 11  1  0
 11 12  1  0
 12 13  1  0
 13 14  1  1
 13 15  1  0
 15 16  1  0
 16 17  1  0
 17 18  2  0
 18 19  1  0
 19 20  1  0
 20 21  1  0
 21 22  1  0
 22 23  1  0
 22 24  1  0
 24 25  1  0
 24 26  1  0
 19 27  1  0
 27 28  1  1
 27 29  1  0
 29 30  1  0
 30 31  1  0
 31 32  1  1
  7  5  1  0
 31 10  1  0
 31 13  1  0
 27 15  1  0
 24 18  1  0
  1 33  1  0
  1 34  1  0
  1 35  1  0
  2 36  1  1
  3 37  1  0
  3 38  1  0
  4 39  1  0
  4 40  1  0
  5 41  1  6
  8 42  1  0
  8 43  1  0
  8 44  1  0
  9 45  1  0
  9 46  1  0
  9 47  1  0
 10 48  1  6
 11 49  1  0
 11 50  1  0
 12 51  1  0
 12 52  1  0
 14 53  1  0
 14 54  1  0
 14 55  1  0
 15 56  1  6
 16 57  1  0
 16 58  1  0
 17 59  1  0
 19 60  1  1
 20 61  1  0
 20 62  1  0
 21 63  1  0
 21 64  1  0
 22 65  1  1
 23 66  1  0
 25 67  1  0
 25 68  1  0
 25 69  1  0
 26 70  1  0
 26 71  1  0
 26 72  1  0
 28 73  1  0
 28 74  1  0
 28 75  1  0
 29 76  1  0
 29 77  1  0
 30 78  1  0
 30 79  1  0
 32 80  1  0
 32 81  1  0
 32 82  1  0
M  END
>  <meeko>  (2) 
{"is_sidechain": [false], "intermolecular_energy": 2.731, "internal_energy": -0.839}

$$$$
EPH_relaxed_0001_pdb2pqr_Repair_360_r2_0001_out
     RDKit          3D

 82 86  0  0  0  0  0  0  0  0999 V2000
    0.3440    8.5910   -2.3540 C   0  0  0  0  0  0  0  0  0  0  0  0
    1.0630    9.7150   -3.1050 C   0  0  2  0  0  0  0  0  0  0  0  0
    2.5770    9.7350   -2.8100 C   0  0  0  0  0  0  0  0  0  0  0  0
    3.4020   10.4630   -3.8740 C   0  0  0  0  0  0  0  0  0  0  0  0
    4.7930   10.7500   -3.3960 C   0  0  2  0  0  0  0  0  0  0  0  0
    5.3590   11.9690   -3.8950 O   0  0  0  0  0  0  0  0  0  0  0  0
    6.0070   10.7540   -4.3070 C   0  0  0  0  0  0  0  0  0  0  0  0
    5.8840   10.4650   -5.7710 C   0  0  0  0  0  0  0  0  0  0  0  0
    7.3600   10.5560   -3.6980 C   0  0  0  0  0  0  0  0  0  0  0  0
    0.4450   11.0610   -2.7440 C   0  0  1  0  0  0  0  0  0  0  0  0
   -0.9510   10.9170   -2.0810 C   0  0  0  0  0  0  0  0  0  0  0  0
   -1.0670   12.0530   -1.0320 C   0  0  0  0  0  0  0  0  0  0  0  0
    0.1110   13.0020   -1.3530 C   0  0  1  0  0  0  0  0  0  0  0  0
   -0.3920   13.8790   -2.5430 C   0  0  0  0  0  0  0  0  0  0  0  0
    0.6340   13.8810   -0.1700 C   0  0  2  0  0  0  0  0  0  0  0  0
   -0.3890   14.8760    0.4050 C   0  0  0  0  0  0  0  0  0  0  0  0
   -0.3890   16.2280   -0.2290 C   0  0  0  0  0  0  0  0  0  0  0  0
    0.5820   16.7210   -1.0200 C   0  0  0  0  0  0  0  0  0  0  0  0
    1.8720   15.9300   -1.2690 C   0  0  1  0  0  0  0  0  0  0  0  0
    3.0960   16.8700   -1.1050 C   0  0  0  0  0  0  0  0  0  0  0  0
    2.9970   18.1160   -1.9800 C   0  0  0  0  0  0  0  0  0  0  0  0
    1.7300   18.9060   -1.6620 C   0  0  2  0  0  0  0  0  0  0  0  0
    1.8370   19.4350   -0.3370 O   0  0  0  0  0  0  0  0  0  0  0  0
    0.4330   18.0590   -1.7840 C   0  0  0  0  0  0  0  0  0  0  0  0
    0.1570   17.7400   -3.2740 C   0  0  0  0  0  0  0  0  0  0  0  0
   -0.7560   18.9340   -1.3010 C   0  0  0  0  0  0  0  0  0  0  0  0
    2.0270   14.5790   -0.4470 C   0  0  1  0  0  0  0  0  0  0  0  0
    2.6620   14.8730    0.9470 C   0  0  0  0  0  0  0  0  0  0  0  0
    3.0320   13.6300   -1.2010 C   0  0  0  0  0  0  0  0  0  0  0  0
    2.4370   12.7010   -2.2760 C   0  0  0  0  0  0  0  0  0  0  0  0
    1.2150   11.9500   -1.7370 C   0  0  2  0  0  0  0  0  0  0  0  0
    1.6950   11.0430   -0.5530 C   0  0  0  0  0  0  0  0  0  0  0  0
    0.4459    8.7503   -1.2704 H   0  0  0  0  0  0  0  0  0  0  0  0
   -0.7218    8.5915   -2.6260 H   0  0  0  0  0  0  0  0  0  0  0  0
    0.7914    7.6236   -2.6260 H   0  0  0  0  0  0  0  0  0  0  0  0
    0.9382    9.5254   -4.1813 H   0  0  0  0  0  0  0  0  0  0  0  0
    2.7359   10.2367   -1.8441 H   0  0  0  0  0  0  0  0  0  0  0  0
    2.9163    8.6887   -2.8006 H   0  0  0  0  0  0  0  0  0  0  0  0
    3.4572    9.8338   -4.7746 H   0  0  0  0  0  0  0  0  0  0  0  0
    2.9098   11.4221   -4.0929 H   0  0  0  0  0  0  0  0  0  0  0  0
    4.5915   10.2497   -2.4373 H   0  0  0  0  0  0  0  0  0  0  0  0
    5.4568    9.4612   -5.9120 H   0  0  0  0  0  0  0  0  0  0  0  0
    5.2260   11.2125   -6.2383 H   0  0  0  0  0  0  0  0  0  0  0  0
    6.8788   10.5090   -6.2383 H   0  0  0  0  0  0  0  0  0  0  0  0
    7.2739   10.5686   -2.6014 H   0  0  0  0  0  0  0  0  0  0  0  0
    7.7701    9.5883   -4.0225 H   0  0  0  0  0  0  0  0  0  0  0  0
    8.0302   11.3656   -4.0225 H   0  0  0  0  0  0  0  0  0  0  0  0
    0.4411   11.5351   -3.7366 H   0  0  0  0  0  0  0  0  0  0  0  0
   -1.7423   11.0184   -2.8383 H   0  0  0  0  0  0  0  0  0  0  0  0
   -1.0642    9.9300   -1.6087 H   0  0  0  0  0  0  0  0  0  0  0  0
   -2.0279   12.5787   -1.1335 H   0  0  0  0  0  0  0  0  0  0  0  0
   -1.0279   11.6737   -0.0002 H   0  0  0  0  0  0  0  0  0  0  0  0
   -0.9033   14.7705   -2.1510 H   0  0  0  0  0  0  0  0  0  0  0  0
    0.4656   14.1890   -3.1582 H   0  0  0  0  0  0  0  0  0  0  0  0
   -1.0926   13.2953   -3.1582 H   0  0  0  0  0  0  0  0  0  0  0  0
    0.8029   13.1355    0.6210 H   0  0  0  0  0  0  0  0  0  0  0  0
   -1.3922   14.4422    0.2806 H   0  0  0  0  0  0  0  0  0  0  0  0
   -0.1041   15.0325    1.4559 H   0  0  0  0  0  0  0  0  0  0  0  0
   -1.2560   16.8759   -0.0330 H   0  0  0  0  0  0  0  0  0  0  0  0
    1.8125   15.5714   -2.3072 H   0  0  0  0  0  0  0  0  0  0  0  0
    3.1623   17.1825   -0.0524 H   0  0  0  0  0  0  0  0  0  0  0  0
    3.9906   16.3118   -1.4182 H   0  0  0  0  0  0  0  0  0  0  0  0
    3.8744   18.7542   -1.7984 H   0  0  0  0  0  0  0  0  0  0  0  0
    2.9608   17.8032   -3.0340 H   0  0  0  0  0  0  0  0  0  0  0  0
    1.6485   19.7122   -2.4059 H   0  0  0  0  0  0  0  0  0  0  0  0
    1.4820   20.3400   -0.3510 H   0  0  0  0  0  0  0  0  0  0  0  0
   -0.5613   16.9098   -3.3443 H   0  0  0  0  0  0  0  0  0  0  0  0
   -0.2611   18.6294   -3.7681 H   0  0  0  0  0  0  0  0  0  0  0  0
    1.0973   17.4541   -3.7681 H   0  0  0  0  0  0  0  0  0  0  0  0
   -0.7769   18.9494   -0.2013 H   0  0  0  0  0  0  0  0  0  0  0  0
   -0.6342   19.9595   -1.6798 H   0  0  0  0  0  0  0  0  0  0  0  0
   -1.6989   18.5127   -1.6798 H   0  0  0  0  0  0  0  0  0  0  0  0
    1.9702   14.5527    1.7400 H   0  0  0  0  0  0  0  0  0  0  0  0
    3.6092   14.3218    1.0421 H   0  0  0  0  0  0  0  0  0  0  0  0
    2.8545   15.9519    1.0421 H   0  0  0  0  0  0  0  0  0  0  0  0
    3.7857   14.2647   -1.6900 H   0  0  0  0  0  0  0  0  0  0  0  0
    3.4282   12.9569   -0.4264 H   0  0  0  0  0  0  0  0  0  0  0  0
    2.1344   13.3038   -3.1449 H   0  0  0  0  0  0  0  0  0  0  0  0
    3.2014   11.9648   -2.5653 H   0  0  0  0  0  0  0  0  0  0  0  0
    1.4407   11.5234    0.4033 H   0  0  0  0  0  0  0  0  0  0  0  0
    1.1968   10.0643   -0.6155 H   0  0  0  0  0  0  0  0  0  0  0  0
    2.7845   10.9045   -0.6155 H   0  0  0  0  0  0  0  0  0  0  0  0
  1  2  1  0
  2  3  1  0
  3  4  1  0
  4  5  1  0
  5  6  1  0
  6  7  1  0
  7  8  1  0
  7  9  1  0
  2 10  1  0
 10 11  1  0
 11 12  1  0
 12 13  1  0
 13 14  1  6
 13 15  1  0
 15 16  1  0
 16 17  1  0
 17 18  2  0
 18 19  1  0
 19 20  1  0
 20 21  1  0
 21 22  1  0
 22 23  1  0
 22 24  1  0
 24 25  1  0
 24 26  1  0
 19 27  1  0
 27 28  1  1
 27 29  1  0
 29 30  1  0
 30 31  1  0
 31 32  1  1
  7  5  1  0
 31 10  1  0
 31 13  1  0
 27 15  1  0
 24 18  1  0
  1 33  1  0
  1 34  1  0
  1 35  1  0
  2 36  1  6
  3 37  1  0
  3 38  1  0
  4 39  1  0
  4 40  1  0
  5 41  1  1
  8 42  1  0
  8 43  1  0
  8 44  1  0
  9 45  1  0
  9 46  1  0
  9 47  1  0
 10 48  1  6
 11 49  1  0
 11 50  1  0
 12 51  1  0
 12 52  1  0
 14 53  1  0
 14 54  1  0
 14 55  1  0
 15 56  1  1
 16 57  1  0
 16 58  1  0
 17 59  1  0
 19 60  1  6
 20 61  1  0
 20 62  1  0
 21 63  1  0
 21 64  1  0
 22 65  1  6
 23 66  1  0
 25 67  1  0
 25 68  1  0
 25 69  1  0
 26 70  1  0
 26 71  1  0
 26 72  1  0
 28 73  1  0
 28 74  1  0
 28 75  1  0
 29 76  1  0
 29 77  1  0
 30 78  1  0
 30 79  1  0
 32 80  1  0
 32 81  1  0
 32 82  1  0
M  END
>  <meeko>  (3) 
{"is_sidechain": [false], "intermolecular_energy": 2.731, "internal_energy": -0.839}

$$$$
EPH_relaxed_0001_pdb2pqr_Repair_360_r2_0001_out
     RDKit          3D

 82 86  0  0  0  0  0  0  0  0999 V2000
    3.1610   14.8940   -7.4520 C   0  0  0  0  0  0  0  0  0  0  0  0
    1.6500   14.6870   -7.3210 C   0  0  2  0  0  0  0  0  0  0  0  0
    0.8490   15.7290   -8.1280 C   0  0  0  0  0  0  0  0  0  0  0  0
    1.7180   16.6130   -9.0260 C   0  0  0  0  0  0  0  0  0  0  0  0
    1.5280   16.2860  -10.4770 C   0  0  2  0  0  0  0  0  0  0  0  0
    1.0450   14.9610  -10.7340 O   0  0  0  0  0  0  0  0  0  0  0  0
    2.3640   15.2610  -11.2200 C   0  0  0  0  0  0  0  0  0  0  0  0
    3.4530   14.4970  -10.5350 C   0  0  0  0  0  0  0  0  0  0  0  0
    2.4500   15.3530  -12.7120 C   0  0  0  0  0  0  0  0  0  0  0  0
    1.2430   14.7410   -5.8530 C   0  0  1  0  0  0  0  0  0  0  0  0
    0.0070   15.6470   -5.6090 C   0  0  0  0  0  0  0  0  0  0  0  0
   -0.8070   14.9930   -4.4630 C   0  0  0  0  0  0  0  0  0  0  0  0
    0.1440   13.9300   -3.8660 C   0  0  1  0  0  0  0  0  0  0  0  0
    1.0870   14.7260   -2.9110 C   0  0  0  0  0  0  0  0  0  0  0  0
   -0.5360   12.7270   -3.1340 C   0  0  2  0  0  0  0  0  0  0  0  0
   -1.3640   13.1010   -1.8930 C   0  0  0  0  0  0  0  0  0  0  0  0
   -0.6140   13.0990   -0.6020 C   0  0  0  0  0  0  0  0  0  0  0  0
    0.5920   12.5370   -0.3990 C   0  0  0  0  0  0  0  0  0  0  0  0
    1.2840   11.7340   -1.5080 C   0  0  1  0  0  0  0  0  0  0  0  0
    1.8270   10.4040   -0.9230 C   0  0  0  0  0  0  0  0  0  0  0  0
    2.7300   10.6230    0.2880 C   0  0  0  0  0  0  0  0  0  0  0  0
    1.9890   11.3740    1.3920 C   0  0  2  0  0  0  0  0  0  0  0  0
    0.9460   10.5360    1.8990 O   0  0  0  0  0  0  0  0  0  0  0  0
    1.3880   12.7260    0.9160 C   0  0  0  0  0  0  0  0  0  0  0  0
    2.5290   13.7390    0.6520 C   0  0  0  0  0  0  0  0  0  0  0  0
    0.5490   13.3120    2.0840 C   0  0  0  0  0  0  0  0  0  0  0  0
    0.4380   11.5150   -2.8360 C   0  0  1  0  0  0  0  0  0  0  0  0
   -0.4590   10.2480   -2.6930 C   0  0  0  0  0  0  0  0  0  0  0  0
    1.4230   11.2300   -4.0310 C   0  0  0  0  0  0  0  0  0  0  0  0
    1.9670   12.4550   -4.7900 C   0  0  0  0  0  0  0  0  0  0  0  0
    0.8320   13.4080   -5.1800 C   0  0  2  0  0  0  0  0  0  0  0  0
   -0.1210   12.6410   -6.1590 C   0  0  0  0  0  0  0  0  0  0  0  0
    3.6109   14.9556   -6.4501 H   0  0  0  0  0  0  0  0  0  0  0  0
    3.6009   14.0477   -8.0000 H   0  0  0  0  0  0  0  0  0  0  0  0
    3.3571   15.8274   -8.0000 H   0  0  0  0  0  0  0  0  0  0  0  0
    1.4149   13.6957   -7.7359 H   0  0  0  0  0  0  0  0  0  0  0  0
    0.1252   15.1956   -8.7617 H   0  0  0  0  0  0  0  0  0  0  0  0
    0.3604   16.3929   -7.3997 H   0  0  0  0  0  0  0  0  0  0  0  0
    1.4469   17.6660   -8.8594 H   0  0  0  0  0  0  0  0  0  0  0  0
    2.7721   16.4319   -8.7688 H   0  0  0  0  0  0  0  0  0  0  0  0
    1.2702   17.3312  -10.7029 H   0  0  0  0  0  0  0  0  0  0  0  0
    3.3312   14.5825   -9.4451 H   0  0  0  0  0  0  0  0  0  0  0  0
    3.3984   13.4382  -10.8282 H   0  0  0  0  0  0  0  0  0  0  0  0
    4.4300   14.9087  -10.8282 H   0  0  0  0  0  0  0  0  0  0  0  0
    3.1768   16.1305  -12.9901 H   0  0  0  0  0  0  0  0  0  0  0  0
    2.7743   14.3847  -13.1210 H   0  0  0  0  0  0  0  0  0  0  0  0
    1.4621   15.6114  -13.1210 H   0  0  0  0  0  0  0  0  0  0  0  0
    2.1819   15.1099   -5.4144 H   0  0  0  0  0  0  0  0  0  0  0  0
    0.3295   16.6571   -5.3161 H   0  0  0  0  0  0  0  0  0  0  0  0
   -0.6003   15.7411   -6.5213 H   0  0  0  0  0  0  0  0  0  0  0  0
   -1.0787   15.7411   -3.7037 H   0  0  0  0  0  0  0  0  0  0  0  0
   -1.7510   14.5549   -4.8194 H   0  0  0  0  0  0  0  0  0  0  0  0
    0.8236   14.5036   -1.8664 H   0  0  0  0  0  0  0  0  0  0  0  0
    2.1304   14.4314   -3.0967 H   0  0  0  0  0  0  0  0  0  0  0  0
    0.9718   15.8041   -3.0967 H   0  0  0  0  0  0  0  0  0  0  0  0
   -1.2623   12.3765   -3.8821 H   0  0  0  0  0  0  0  0  0  0  0  0
   -1.7714   14.1109   -2.0479 H   0  0  0  0  0  0  0  0  0  0  0  0
   -2.1369   12.3242   -1.7973 H   0  0  0  0  0  0  0  0  0  0  0  0
   -1.0871   13.5992    0.2559 H   0  0  0  0  0  0  0  0  0  0  0  0
    2.1203   12.3572   -1.8576 H   0  0  0  0  0  0  0  0  0  0  0  0
    0.9748    9.7785   -0.6189 H   0  0  0  0  0  0  0  0  0  0  0  0
    2.4285    9.9164   -1.7043 H   0  0  0  0  0  0  0  0  0  0  0  0
    3.0577    9.6465    0.6741 H   0  0  0  0  0  0  0  0  0  0  0  0
    3.5971   11.2234   -0.0244 H   0  0  0  0  0  0  0  0  0  0  0  0
    2.7216   11.6153    2.1763 H   0  0  0  0  0  0  0  0  0  0  0  0
    0.8770   10.6970    2.8550 H   0  0  0  0  0  0  0  0  0  0  0  0
    2.9314   14.0963    1.6114 H   0  0  0  0  0  0  0  0  0  0  0  0
    3.3294   13.2485    0.0785 H   0  0  0  0  0  0  0  0  0  0  0  0
    2.1368   14.5918    0.0785 H   0  0  0  0  0  0  0  0  0  0  0  0
    0.9904   13.0037    3.0432 H   0  0  0  0  0  0  0  0  0  0  0  0
    0.5454   14.4100    2.0181 H   0  0  0  0  0  0  0  0  0  0  0  0
   -0.4831   12.9374    2.0181 H   0  0  0  0  0  0  0  0  0  0  0  0
   -0.6150   10.0276   -1.6266 H   0  0  0  0  0  0  0  0  0  0  0  0
   -1.4305   10.4301   -3.1757 H   0  0  0  0  0  0  0  0  0  0  0  0
    0.0356    9.3922   -3.1757 H   0  0  0  0  0  0  0  0  0  0  0  0
    2.2851   10.6788   -3.6274 H   0  0  0  0  0  0  0  0  0  0  0  0
    0.8261   10.6753   -4.7700 H   0  0  0  0  0  0  0  0  0  0  0  0
    2.6803   12.9898   -4.1456 H   0  0  0  0  0  0  0  0  0  0  0  0
    2.4631   12.1066   -5.7079 H   0  0  0  0  0  0  0  0  0  0  0  0
   -0.8488   12.0552   -5.5784 H   0  0  0  0  0  0  0  0  0  0  0  0
   -0.6547   13.3643   -6.7930 H   0  0  0  0  0  0  0  0  0  0  0  0
    0.4715   11.9650   -6.7930 H   0  0  0  0  0  0  0  0  0  0  0  0
  1  2  1  0
  2  3  1  0
  3  4  1  0
  4  5  1  0
  5  6  1  0
  6  7  1  0
  7  8  1  0
  7  9  1  0
  2 10  1  0
 10 11  1  0
 11 12  1  0
 12 13  1  0
 13 14  1  1
 13 15  1  0
 15 16  1  0
 16 17  1  0
 17 18  2  0
 18 19  1  0
 19 20  1  0
 20 21  1  0
 21 22  1  0
 22 23  1  0
 22 24  1  0
 24 25  1  0
 24 26  1  0
 19 27  1  0
 27 28  1  1
 27 29  1  0
 29 30  1  0
 30 31  1  0
 31 32  1  6
  7  5  1  0
 31 10  1  0
 31 13  1  0
 27 15  1  0
 24 18  1  0
  1 33  1  0
  1 34  1  0
  1 35  1  0
  2 36  1  6
  3 37  1  0
  3 38  1  0
  4 39  1  0
  4 40  1  0
  5 41  1  6
  8 42  1  0
  8 43  1  0
  8 44  1  0
  9 45  1  0
  9 46  1  0
  9 47  1  0
 10 48  1  1
 11 49  1  0
 11 50  1  0
 12 51  1  0
 12 52  1  0
 14 53  1  0
 14 54  1  0
 14 55  1  0
 15 56  1  6
 16 57  1  0
 16 58  1  0
 17 59  1  0
 19 60  1  6
 20 61  1  0
 20 62  1  0
 21 63  1  0
 21 64  1  0
 22 65  1  1
 23 66  1  0
 25 67  1  0
 25 68  1  0
 25 69  1  0
 26 70  1  0
 26 71  1  0
 26 72  1  0
 28 73  1  0
 28 74  1  0
 28 75  1  0
 29 76  1  0
 29 77  1  0
 30 78  1  0
 30 79  1  0
 32 80  1  0
 32 81  1  0
 32 82  1  0
M  END
>  <meeko>  (4) 
{"is_sidechain": [false], "intermolecular_energy": 2.731, "internal_energy": -0.839}

$$$$
EPH_relaxed_0001_pdb2pqr_Repair_360_r2_0001_out
     RDKit          3D

 82 86  0  0  0  0  0  0  0  0999 V2000
    2.9990   19.0610   -1.5500 C   0  0  0  0  0  0  0  0  0  0  0  0
    1.5130   19.0500   -1.1820 C   0  0  2  0  0  0  0  0  0  0  0  0
    1.1800   20.0700   -0.0750 C   0  0  0  0  0  0  0  0  0  0  0  0
    1.8170   19.7390    1.2780 C   0  0  0  0  0  0  0  0  0  0  0  0
    3.3130   19.7950    1.2150 C   0  0  2  0  0  0  0  0  0  0  0  0
    3.9710   18.5570    1.5130 O   0  0  0  0  0  0  0  0  0  0  0  0
    4.2080   19.6370    2.4300 C   0  0  0  0  0  0  0  0  0  0  0  0
    3.6380   19.4130    3.7950 C   0  0  0  0  0  0  0  0  0  0  0  0
    5.6000   20.1850    2.3700 C   0  0  0  0  0  0  0  0  0  0  0  0
    1.0970   17.6510   -0.7430 C   0  0  1  0  0  0  0  0  0  0  0  0
   -0.2640   17.6390    0.0040 C   0  0  0  0  0  0  0  0  0  0  0  0
   -0.9740   16.3150   -0.3810 C   0  0  0  0  0  0  0  0  0  0  0  0
    0.1260   15.4660   -1.0610 C   0  0  1  0  0  0  0  0  0  0  0  0
    0.9330   14.8370    0.1180 C   0  0  0  0  0  0  0  0  0  0  0  0
   -0.3660   14.3770   -2.0690 C   0  0  2  0  0  0  0  0  0  0  0  0
   -1.2470   13.2730   -1.4580 C   0  0  0  0  0  0  0  0  0  0  0  0
   -0.5100   12.0750   -0.9570 C   0  0  0  0  0  0  0  0  0  0  0  0
    0.7660   11.7630   -1.2490 C   0  0  0  0  0  0  0  0  0  0  0  0
    1.5760   12.6060   -2.2420 C   0  0  1  0  0  0  0  0  0  0  0  0
    2.3130   11.6700   -3.2360 C   0  0  0  0  0  0  0  0  0  0  0  0
    3.1670   10.6220   -2.5280 C   0  0  0  0  0  0  0  0  0  0  0  0
    2.3160    9.7660   -1.5940 C   0  0  2  0  0  0  0  0  0  0  0  0
    1.4100    8.9850   -2.3800 O   0  0  0  0  0  0  0  0  0  0  0  0
    1.5180   10.6010   -0.5540 C   0  0  0  0  0  0  0  0  0  0  0  0
    2.4940   11.2070    0.4850 C   0  0  0  0  0  0  0  0  0  0  0  0
    0.5960    9.6310    0.2320 C   0  0  0  0  0  0  0  0  0  0  0  0
    0.7790   13.7690   -2.9760 C   0  0  1  0  0  0  0  0  0  0  0  0
    0.0840   13.2120   -4.2560 C   0  0  0  0  0  0  0  0  0  0  0  0
    1.8000   14.8630   -3.4650 C   0  0  0  0  0  0  0  0  0  0  0  0
    2.1550   15.9790   -2.4640 C   0  0  0  0  0  0  0  0  0  0  0  0
    0.8900   16.5890   -1.8520 C   0  0  2  0  0  0  0  0  0  0  0  0
    0.0680   17.2490   -3.0120 C   0  0  0  0  0  0  0  0  0  0  0  0
    3.6042   19.0655   -0.6315 H   0  0  0  0  0  0  0  0  0  0  0  0
    3.2369   18.1646   -2.1415 H   0  0  0  0  0  0  0  0  0  0  0  0
    3.2236   19.9608   -2.1415 H   0  0  0  0  0  0  0  0  0  0  0  0
    0.9483   19.3420   -2.0797 H   0  0  0  0  0  0  0  0  0  0  0  0
    1.5385   21.0595   -0.3950 H   0  0  0  0  0  0  0  0  0  0  0  0
    0.0896   20.0452    0.0680 H   0  0  0  0  0  0  0  0  0  0  0  0
    1.4643   20.4651    2.0252 H   0  0  0  0  0  0  0  0  0  0  0  0
    1.5236   18.7154    1.5538 H   0  0  0  0  0  0  0  0  0  0  0  0
    3.2748   20.5550    0.4206 H   0  0  0  0  0  0  0  0  0  0  0  0
    4.3790   19.7042    4.5541 H   0  0  0  0  0  0  0  0  0  0  0  0
    2.7295   20.0210    3.9173 H   0  0  0  0  0  0  0  0  0  0  0  0
    3.3865   18.3491    3.9173 H   0  0  0  0  0  0  0  0  0  0  0  0
    5.9796   20.3344    3.3916 H   0  0  0  0  0  0  0  0  0  0  0  0
    6.2506   19.4759    1.8372 H   0  0  0  0  0  0  0  0  0  0  0  0
    5.5926   21.1473    1.8372 H   0  0  0  0  0  0  0  0  0  0  0  0
    1.9679   17.3855   -0.1256 H   0  0  0  0  0  0  0  0  0  0  0  0
   -0.0999   17.6786    1.0910 H   0  0  0  0  0  0  0  0  0  0  0  0
   -0.8750   18.5103   -0.2744 H   0  0  0  0  0  0  0  0  0  0  0  0
   -1.3591   15.8061    0.5149 H   0  0  0  0  0  0  0  0  0  0  0  0
   -1.8392   16.4817   -1.0395 H   0  0  0  0  0  0  0  0  0  0  0  0
    0.5048   15.1708    1.0747 H   0  0  0  0  0  0  0  0  0  0  0  0
    0.8793   13.7401    0.0551 H   0  0  0  0  0  0  0  0  0  0  0  0
    1.9836   15.1569    0.0551 H   0  0  0  0  0  0  0  0  0  0  0  0
   -1.0273   14.9519   -2.7340 H   0  0  0  0  0  0  0  0  0  0  0  0
   -1.8017   13.7087   -0.6139 H   0  0  0  0  0  0  0  0  0  0  0  0
   -1.8946   12.9144   -2.2717 H   0  0  0  0  0  0  0  0  0  0  0  0
   -1.0565   11.3893   -0.2928 H   0  0  0  0  0  0  0  0  0  0  0  0
    2.3092   13.1630   -1.6402 H   0  0  0  0  0  0  0  0  0  0  0  0
    1.5648   11.1549   -3.8564 H   0  0  0  0  0  0  0  0  0  0  0  0
    2.9847   12.2922   -3.8457 H   0  0  0  0  0  0  0  0  0  0  0  0
    3.6388    9.9735   -3.2809 H   0  0  0  0  0  0  0  0  0  0  0  0
    3.9332   11.1382   -1.9309 H   0  0  0  0  0  0  0  0  0  0  0  0
    3.0011    9.1233   -1.0216 H   0  0  0  0  0  0  0  0  0  0  0  0
    1.5420    9.2320   -3.3110 H   0  0  0  0  0  0  0  0  0  0  0  0
    2.1340   10.9835    1.5001 H   0  0  0  0  0  0  0  0  0  0  0  0
    3.4943   10.7709    0.3464 H   0  0  0  0  0  0  0  0  0  0  0  0
    2.5468   12.2970    0.3464 H   0  0  0  0  0  0  0  0  0  0  0  0
    0.7400    9.7825    1.3120 H   0  0  0  0  0  0  0  0  0  0  0  0
   -0.4537    9.8303   -0.0294 H   0  0  0  0  0  0  0  0  0  0  0  0
    0.8482    8.5927   -0.0294 H   0  0  0  0  0  0  0  0  0  0  0  0
   -0.7437   12.5487   -3.9646 H   0  0  0  0  0  0  0  0  0  0  0  0
   -0.3090   14.0481   -4.8531 H   0  0  0  0  0  0  0  0  0  0  0  0
    0.8144   12.6464   -4.8531 H   0  0  0  0  0  0  0  0  0  0  0  0
    2.7342   14.3491   -3.7354 H   0  0  0  0  0  0  0  0  0  0  0  0
    1.2967   15.3740   -4.2990 H   0  0  0  0  0  0  0  0  0  0  0  0
    2.7763   15.5572   -1.6602 H   0  0  0  0  0  0  0  0  0  0  0  0
    2.7021   16.7692   -2.9990 H   0  0  0  0  0  0  0  0  0  0  0  0
   -0.7228   17.8839   -2.5859 H   0  0  0  0  0  0  0  0  0  0  0  0
    0.7373   17.8635   -3.6321 H   0  0  0  0  0  0  0  0  0  0  0  0
   -0.3874   16.4628   -3.6321 H   0  0  0  0  0  0  0  0  0  0  0  0
  1  2  1  0
  2  3  1  0
  3  4  1  0
  4  5  1  0
  5  6  1  0
  6  7  1  0
  7  8  1  0
  7  9  1  0
  2 10  1  0
 10 11  1  0
 11 12  1  0
 12 13  1  0
 13 14  1  1
 13 15  1  0
 15 16  1  0
 16 17  1  0
 17 18  2  0
 18 19  1  0
 19 20  1  0
 20 21  1  0
 21 22  1  0
 22 23  1  0
 22 24  1  0
 24 25  1  0
 24 26  1  0
 19 27  1  0
 27 28  1  6
 27 29  1  0
 29 30  1  0
 30 31  1  0
 31 32  1  6
  7  5  1  0
 31 10  1  0
 31 13  1  0
 27 15  1  0
 24 18  1  0
  1 33  1  0
  1 34  1  0
  1 35  1  0
  2 36  1  6
  3 37  1  0
  3 38  1  0
  4 39  1  0
  4 40  1  0
  5 41  1  6
  8 42  1  0
  8 43  1  0
  8 44  1  0
  9 45  1  0
  9 46  1  0
  9 47  1  0
 10 48  1  1
 11 49  1  0
 11 50  1  0
 12 51  1  0
 12 52  1  0
 14 53  1  0
 14 54  1  0
 14 55  1  0
 15 56  1  6
 16 57  1  0
 16 58  1  0
 17 59  1  0
 19 60  1  1
 20 61  1  0
 20 62  1  0
 21 63  1  0
 21 64  1  0
 22 65  1  1
 23 66  1  0
 25 67  1  0
 25 68  1  0
 25 69  1  0
 26 70  1  0
 26 71  1  0
 26 72  1  0
 28 73  1  0
 28 74  1  0
 28 75  1  0
 29 76  1  0
 29 77  1  0
 30 78  1  0
 30 79  1  0
 32 80  1  0
 32 81  1  0
 32 82  1  0
M  END
>  <meeko>  (5) 
{"is_sidechain": [false], "intermolecular_energy": 2.731, "internal_energy": -0.839}

$$$$
EPH_relaxed_0001_pdb2pqr_Repair_360_r2_0001_out
     RDKit          3D

 82 86  0  0  0  0  0  0  0  0999 V2000
    0.1430    7.2200   -0.1490 C   0  0  0  0  0  0  0  0  0  0  0  0
   -0.8130    8.3280   -0.6020 C   0  0  2  0  0  0  0  0  0  0  0  0
   -1.2090    8.1840   -2.0850 C   0  0  0  0  0  0  0  0  0  0  0  0
   -2.7220    8.1800   -2.3200 C   0  0  0  0  0  0  0  0  0  0  0  0
   -3.1940    6.8680   -2.8700 C   0  0  2  0  0  0  0  0  0  0  0  0
   -4.2190    6.9710   -3.8670 O   0  0  0  0  0  0  0  0  0  0  0  0
   -4.5900    6.3180   -2.6420 C   0  0  0  0  0  0  0  0  0  0  0  0
   -5.6020    7.0700   -1.8340 C   0  0  0  0  0  0  0  0  0  0  0  0
   -4.8120    4.8450   -2.7860 C   0  0  0  0  0  0  0  0  0  0  0  0
   -0.1780    9.6930   -0.3620 C   0  0  1  0  0  0  0  0  0  0  0  0
    0.9460    9.6490    0.7060 C   0  0  0  0  0  0  0  0  0  0  0  0
    2.0220   10.6750    0.2660 C   0  0  0  0  0  0  0  0  0  0  0  0
    1.3370   11.5050   -0.8450 C   0  0  1  0  0  0  0  0  0  0  0  0
    0.4680   12.5540   -0.0840 C   0  0  0  0  0  0  0  0  0  0  0  0
    2.2870   12.1870   -1.8830 C   0  0  2  0  0  0  0  0  0  0  0  0
    3.2520   13.2320   -1.2960 C   0  0  0  0  0  0  0  0  0  0  0  0
    2.7360   14.6320   -1.2700 C   0  0  0  0  0  0  0  0  0  0  0  0
    1.6690   15.0860   -1.9540 C   0  0  0  0  0  0  0  0  0  0  0  0
    0.9180   14.1770   -2.9350 C   0  0  1  0  0  0  0  0  0  0  0  0
    0.6660   14.9420   -4.2610 C   0  0  0  0  0  0  0  0  0  0  0  0
   -0.0420   16.2750   -4.0410 C   0  0  0  0  0  0  0  0  0  0  0  0
    0.7640   17.1730   -3.1070 C   0  0  2  0  0  0  0  0  0  0  0  0
    1.9810   17.5450   -3.7610 O   0  0  0  0  0  0  0  0  0  0  0  0
    1.0870   16.5050   -1.7410 C   0  0  0  0  0  0  0  0  0  0  0  0
   -0.2100   16.3770   -0.9040 C   0  0  0  0  0  0  0  0  0  0  0  0
    2.0210   17.4600   -0.9510 C   0  0  0  0  0  0  0  0  0  0  0  0
    1.5520   12.7380   -3.1710 C   0  0  1  0  0  0  0  0  0  0  0  0
    2.6240   12.8080   -4.3010 C   0  0  0  0  0  0  0  0  0  0  0  0
    0.4290   11.7600   -3.6840 C   0  0  0  0  0  0  0  0  0  0  0  0
   -0.3960   11.0250   -2.6100 C   0  0  0  0  0  0  0  0  0  0  0  0
    0.5170   10.3740   -1.5670 C   0  0  2  0  0  0  0  0  0  0  0  0
    1.3890    9.2980   -2.3000 C   0  0  0  0  0  0  0  0  0  0  0  0
    0.1715    7.1870    0.9501 H   0  0  0  0  0  0  0  0  0  0  0  0
   -0.2080    6.2520   -0.5359 H   0  0  0  0  0  0  0  0  0  0  0  0
    1.1520    7.4254   -0.5359 H   0  0  0  0  0  0  0  0  0  0  0  0
   -1.7324    8.2357   -0.0051 H   0  0  0  0  0  0  0  0  0  0  0  0
   -0.7728    9.0249   -2.6442 H   0  0  0  0  0  0  0  0  0  0  0  0
   -0.8278    7.2103   -2.4266 H   0  0  0  0  0  0  0  0  0  0  0  0
   -3.2318    8.3699   -1.3639 H   0  0  0  0  0  0  0  0  0  0  0  0
   -2.9571    8.9643   -3.0546 H   0  0  0  0  0  0  0  0  0  0  0  0
   -2.1959    6.4258   -2.7352 H   0  0  0  0  0  0  0  0  0  0  0  0
   -5.4006    6.9204   -0.7630 H   0  0  0  0  0  0  0  0  0  0  0  0
   -5.5387    8.1419   -2.0727 H   0  0  0  0  0  0  0  0  0  0  0  0
   -6.6101    6.7001   -2.0727 H   0  0  0  0  0  0  0  0  0  0  0  0
   -4.8813    4.3854   -1.7890 H   0  0  0  0  0  0  0  0  0  0  0  0
   -5.7471    4.6673   -3.3374 H   0  0  0  0  0  0  0  0  0  0  0  0
   -3.9708    4.3996   -3.3374 H   0  0  0  0  0  0  0  0  0  0  0  0
   -1.0715   10.2645   -0.0705 H   0  0  0  0  0  0  0  0  0  0  0  0
    0.5425    9.9227    1.6920 H   0  0  0  0  0  0  0  0  0  0  0  0
    1.3737    8.6388    0.7877 H   0  0  0  0  0  0  0  0  0  0  0  0
    2.3124   11.3191    1.1091 H   0  0  0  0  0  0  0  0  0  0  0  0
    2.9442   10.1885   -0.0847 H   0  0  0  0  0  0  0  0  0  0  0  0
    0.5865   12.4110    1.0002 H   0  0  0  0  0  0  0  0  0  0  0  0
    0.7941   13.5682   -0.3579 H   0  0  0  0  0  0  0  0  0  0  0  0
   -0.5892   12.4223   -0.3579 H   0  0  0  0  0  0  0  0  0  0  0  0
    2.9184   11.3481   -2.2110 H   0  0  0  0  0  0  0  0  0  0  0  0
    3.4854   12.9365   -0.2625 H   0  0  0  0  0  0  0  0  0  0  0  0
    4.1292   13.2431   -1.9597 H   0  0  0  0  0  0  0  0  0  0  0  0
    3.2732   15.3546   -0.6381 H   0  0  0  0  0  0  0  0  0  0  0  0
   -0.0421   13.9380   -2.4542 H   0  0  0  0  0  0  0  0  0  0  0  0
    1.6339   15.1328   -4.7476 H   0  0  0  0  0  0  0  0  0  0  0  0
    0.0139   14.3169   -4.8887 H   0  0  0  0  0  0  0  0  0  0  0  0
   -0.1652   16.7814   -5.0097 H   0  0  0  0  0  0  0  0  0  0  0  0
   -1.0222   16.0802   -3.5814 H   0  0  0  0  0  0  0  0  0  0  0  0
    0.1466   18.0560   -2.8852 H   0  0  0  0  0  0  0  0  0  0  0  0
    1.7860   18.3030   -4.3370 H   0  0  0  0  0  0  0  0  0  0  0  0
    0.0407   16.4017    0.1668 H   0  0  0  0  0  0  0  0  0  0  0  0
   -0.8841   17.2130   -1.1422 H   0  0  0  0  0  0  0  0  0  0  0  0
   -0.7077   15.4254   -1.1422 H   0  0  0  0  0  0  0  0  0  0  0  0
    1.8725   17.3082    0.1283 H   0  0  0  0  0  0  0  0  0  0  0  0
    3.0683   17.2464   -1.2107 H   0  0  0  0  0  0  0  0  0  0  0  0
    1.7841   18.5023   -1.2107 H   0  0  0  0  0  0  0  0  0  0  0  0
    3.6261   12.8734   -3.8522 H   0  0  0  0  0  0  0  0  0  0  0  0
    2.5596   11.9037   -4.9240 H   0  0  0  0  0  0  0  0  0  0  0  0
    2.4426   13.6962   -4.9240 H   0  0  0  0  0  0  0  0  0  0  0  0
   -0.2704   12.3483   -4.2961 H   0  0  0  0  0  0  0  0  0  0  0  0
    0.9639   10.9677   -4.2282 H   0  0  0  0  0  0  0  0  0  0  0  0
   -1.0578   11.7465   -2.1085 H   0  0  0  0  0  0  0  0  0  0  0  0
   -0.9862   10.2367   -3.1000 H   0  0  0  0  0  0  0  0  0  0  0  0
    1.8985    8.6693   -1.5549 H   0  0  0  0  0  0  0  0  0  0  0  0
    0.7425    8.6692   -2.9298 H   0  0  0  0  0  0  0  0  0  0  0  0
    2.1381    9.8002   -2.9298 H   0  0  0  0  0  0  0  0  0  0  0  0
  1  2  1  0
  2  3  1  0
  3  4  1  0
  4  5  1  0
  5  6  1  0
  6  7  1  0
  7  8  1  0
  7  9  1  0
  2 10  1  0
 10 11  1  0
 11 12  1  0
 12 13  1  0
 13 14  1  1
 13 15  1  0
 15 16  1  0
 16 17  1  0
 17 18  2  0
 18 19  1  0
 19 20  1  0
 20 21  1  0
 21 22  1  0
 22 23  1  0
 22 24  1  0
 24 25  1  0
 24 26  1  0
 19 27  1  0
 27 28  1  6
 27 29  1  0
 29 30  1  0
 30 31  1  0
 31 32  1  6
  7  5  1  0
 31 10  1  0
 31 13  1  0
 27 15  1  0
 24 18  1  0
  1 33  1  0
  1 34  1  0
  1 35  1  0
  2 36  1  1
  3 37  1  0
  3 38  1  0
  4 39  1  0
  4 40  1  0
  5 41  1  6
  8 42  1  0
  8 43  1  0
  8 44  1  0
  9 45  1  0
  9 46  1  0
  9 47  1  0
 10 48  1  1
 11 49  1  0
 11 50  1  0
 12 51  1  0
 12 52  1  0
 14 53  1  0
 14 54  1  0
 14 55  1  0
 15 56  1  6
 16 57  1  0
 16 58  1  0
 17 59  1  0
 19 60  1  1
 20 61  1  0
 20 62  1  0
 21 63  1  0
 21 64  1  0
 22 65  1  1
 23 66  1  0
 25 67  1  0
 25 68  1  0
 25 69  1  0
 26 70  1  0
 26 71  1  0
 26 72  1  0
 28 73  1  0
 28 74  1  0
 28 75  1  0
 29 76  1  0
 29 77  1  0
 30 78  1  0
 30 79  1  0
 32 80  1  0
 32 81  1  0
 32 82  1  0
M  END
>  <meeko>  (6) 
{"is_sidechain": [false], "intermolecular_energy": 2.731, "internal_energy": -0.839}

$$$$
EPH_relaxed_0001_pdb2pqr_Repair_360_r2_0001_out
     RDKit          3D

 82 86  0  0  0  0  0  0  0  0999 V2000
    0.9500   18.6930   -1.3830 C   0  0  0  0  0  0  0  0  0  0  0  0
    0.2750   18.5460   -2.7500 C   0  0  2  0  0  0  0  0  0  0  0  0
   -1.0660   19.3050   -2.8200 C   0  0  0  0  0  0  0  0  0  0  0  0
   -1.4670   19.9680   -1.4990 C   0  0  0  0  0  0  0  0  0  0  0  0
   -2.0510   18.9780   -0.5370 C   0  0  2  0  0  0  0  0  0  0  0  0
   -2.5650   19.5500    0.6730 O   0  0  0  0  0  0  0  0  0  0  0  0
   -1.4410   18.6670    0.8170 C   0  0  0  0  0  0  0  0  0  0  0  0
   -0.1900   19.3440    1.2830 C   0  0  0  0  0  0  0  0  0  0  0  0
   -1.7780   17.3640    1.4710 C   0  0  0  0  0  0  0  0  0  0  0  0
    0.0560   17.0710   -3.0650 C   0  0  1  0  0  0  0  0  0  0  0  0
   -0.0590   16.7960   -4.5880 C   0  0  0  0  0  0  0  0  0  0  0  0
    0.5930   15.4130   -4.8430 C   0  0  0  0  0  0  0  0  0  0  0  0
    0.7600   14.7950   -3.4350 C   0  0  1  0  0  0  0  0  0  0  0  0
   -0.6440   14.2090   -3.0860 C   0  0  0  0  0  0  0  0  0  0  0  0
    1.8870   13.7220   -3.2800 C   0  0  2  0  0  0  0  0  0  0  0  0
    1.7030   12.4540   -4.1320 C   0  0  0  0  0  0  0  0  0  0  0  0
    0.9480   11.3480   -3.4730 C   0  0  0  0  0  0  0  0  0  0  0  0
    0.6850   11.2560   -2.1560 C   0  0  0  0  0  0  0  0  0  0  0  0
    1.2470   12.2850   -1.1670 C   0  0  1  0  0  0  0  0  0  0  0  0
    1.8500   11.5500    0.0590 C   0  0  0  0  0  0  0  0  0  0  0  0
    0.8580   10.5930    0.7130 C   0  0  0  0  0  0  0  0  0  0  0  0
    0.3650    9.5500   -0.2860 C   0  0  2  0  0  0  0  0  0  0  0  0
    1.4610    8.7020   -0.6450 O   0  0  0  0  0  0  0  0  0  0  0  0
   -0.2540   10.1740   -1.5680 C   0  0  0  0  0  0  0  0  0  0  0  0
   -1.6080   10.8410   -1.2200 C   0  0  0  0  0  0  0  0  0  0  0  0
   -0.5800    9.0180   -2.5520 C   0  0  0  0  0  0  0  0  0  0  0  0
    2.2400   13.3650   -1.7790 C   0  0  1  0  0  0  0  0  0  0  0  0
    3.6960   12.8070   -1.7850 C   0  0  0  0  0  0  0  0  0  0  0  0
    2.2550   14.6350   -0.8490 C   0  0  0  0  0  0  0  0  0  0  0  0
    1.1910   15.7140   -1.1290 C   0  0  0  0  0  0  0  0  0  0  0  0
    1.1570   16.0770   -2.6170 C   0  0  2  0  0  0  0  0  0  0  0  0
    2.5490   16.6890   -2.9920 C   0  0  0  0  0  0  0  0  0  0  0  0
    0.2072   18.5312   -0.5880 H   0  0  0  0  0  0  0  0  0  0  0  0
    1.7549   17.9491   -1.2896 H   0  0  0  0  0  0  0  0  0  0  0  0
    1.3727   19.7042   -1.2896 H   0  0  0  0  0  0  0  0  0  0  0  0
    0.9454   18.9908   -3.5001 H   0  0  0  0  0  0  0  0  0  0  0  0
   -0.9832   20.0864   -3.5898 H   0  0  0  0  0  0  0  0  0  0  0  0
   -1.8434   18.5637   -3.0569 H   0  0  0  0  0  0  0  0  0  0  0  0
   -0.5754   20.4241   -1.0439 H   0  0  0  0  0  0  0  0  0  0  0  0
   -2.2318   20.7285   -1.7152 H   0  0  0  0  0  0  0  0  0  0  0  0
   -2.3786   18.3318   -1.3647 H   0  0  0  0  0  0  0  0  0  0  0  0
   -0.1675   19.3562    2.3827 H   0  0  0  0  0  0  0  0  0  0  0  0
    0.6859   18.7968    0.9044 H   0  0  0  0  0  0  0  0  0  0  0  0
   -0.1690   20.3766    0.9044 H   0  0  0  0  0  0  0  0  0  0  0  0
   -1.7471   17.4836    2.5640 H   0  0  0  0  0  0  0  0  0  0  0  0
   -2.7869   17.0502    1.1649 H   0  0  0  0  0  0  0  0  0  0  0  0
   -1.0478   16.6004    1.1649 H   0  0  0  0  0  0  0  0  0  0  0  0
   -0.8658   16.8948   -2.4912 H   0  0  0  0  0  0  0  0  0  0  0  0
   -1.1163   16.7780   -4.8909 H   0  0  0  0  0  0  0  0  0  0  0  0
    0.4428   17.5827   -5.1705 H   0  0  0  0  0  0  0  0  0  0  0  0
   -0.0595   14.7853   -5.4677 H   0  0  0  0  0  0  0  0  0  0  0  0
    1.5502   15.4954   -5.3787 H   0  0  0  0  0  0  0  0  0  0  0  0
   -0.7598   14.1607   -1.9932 H   0  0  0  0  0  0  0  0  0  0  0  0
   -1.4268   14.8555   -3.5094 H   0  0  0  0  0  0  0  0  0  0  0  0
   -0.7349   13.1978   -3.5094 H   0  0  0  0  0  0  0  0  0  0  0  0
    2.7632   14.2380   -3.6995 H   0  0  0  0  0  0  0  0  0  0  0  0
    1.1633   12.7354   -5.0483 H   0  0  0  0  0  0  0  0  0  0  0  0
    2.7141   12.0633   -4.3191 H   0  0  0  0  0  0  0  0  0  0  0  0
    0.5747   10.5392   -4.1184 H   0  0  0  0  0  0  0  0  0  0  0  0
    0.3917   12.9000   -0.8504 H   0  0  0  0  0  0  0  0  0  0  0  0
    2.7286   10.9761   -0.2709 H   0  0  0  0  0  0  0  0  0  0  0  0
    2.1209   12.3116    0.8051 H   0  0  0  0  0  0  0  0  0  0  0  0
    1.3514   10.0818    1.5528 H   0  0  0  0  0  0  0  0  0  0  0  0
   -0.0060   11.1731    1.0693 H   0  0  0  0  0  0  0  0  0  0  0  0
   -0.4371    8.9778    0.2030 H   0  0  0  0  0  0  0  0  0  0  0  0
    1.3100    8.3950   -1.5550 H   0  0  0  0  0  0  0  0  0  0  0  0
   -1.7195   10.8959   -0.1270 H   0  0  0  0  0  0  0  0  0  0  0  0
   -1.6361   11.8561   -1.6429 H   0  0  0  0  0  0  0  0  0  0  0  0
   -2.4299   10.2447   -1.6429 H   0  0  0  0  0  0  0  0  0  0  0  0
   -0.8354    8.1124   -1.9821 H   0  0  0  0  0  0  0  0  0  0  0  0
   -1.4322    9.3051   -3.1855 H   0  0  0  0  0  0  0  0  0  0  0  0
    0.2966    8.8175   -3.1855 H   0  0  0  0  0  0  0  0  0  0  0  0
    4.0421   12.6744   -0.7493 H   0  0  0  0  0  0  0  0  0  0  0  0
    3.7151   11.8378   -2.3050 H   0  0  0  0  0  0  0  0  0  0  0  0
    4.3579   13.5152   -2.3050 H   0  0  0  0  0  0  0  0  0  0  0  0
    2.1155   14.2909    0.1864 H   0  0  0  0  0  0  0  0  0  0  0  0
    3.2201   15.1246   -1.0460 H   0  0  0  0  0  0  0  0  0  0  0  0
    0.2039   15.3325   -0.8290 H   0  0  0  0  0  0  0  0  0  0  0  0
    1.4461   16.6161   -0.5535 H   0  0  0  0  0  0  0  0  0  0  0  0
    3.1022   16.9322   -2.0729 H   0  0  0  0  0  0  0  0  0  0  0  0
    3.1227   15.9601   -3.5833 H   0  0  0  0  0  0  0  0  0  0  0  0
    2.3998   17.6045   -3.5833 H   0  0  0  0  0  0  0  0  0  0  0  0
  1  2  1  0
  2  3  1  0
  3  4  1  0
  4  5  1  0
  5  6  1  0
  6  7  1  0
  7  8  1  0
  7  9  1  0
  2 10  1  0
 10 11  1  0
 11 12  1  0
 12 13  1  0
 13 14  1  1
 13 15  1  0
 15 16  1  0
 16 17  1  0
 17 18  2  0
 18 19  1  0
 19 20  1  0
 20 21  1  0
 21 22  1  0
 22 23  1  0
 22 24  1  0
 24 25  1  0
 24 26  1  0
 19 27  1  0
 27 28  1  6
 27 29  1  0
 29 30  1  0
 30 31  1  0
 31 32  1  6
  7  5  1  0
 31 10  1  0
 31 13  1  0
 27 15  1  0
 24 18  1  0
  1 33  1  0
  1 34  1  0
  1 35  1  0
  2 36  1  6
  3 37  1  0
  3 38  1  0
  4 39  1  0
  4 40  1  0
  5 41  1  6
  8 42  1  0
  8 43  1  0
  8 44  1  0
  9 45  1  0
  9 46  1  0
  9 47  1  0
 10 48  1  1
 11 49  1  0
 11 50  1  0
 12 51  1  0
 12 52  1  0
 14 53  1  0
 14 54  1  0
 14 55  1  0
 15 56  1  6
 16 57  1  0
 16 58  1  0
 17 59  1  0
 19 60  1  1
 20 61  1  0
 20 62  1  0
 21 63  1  0
 21 64  1  0
 22 65  1  1
 23 66  1  0
 25 67  1  0
 25 68  1  0
 25 69  1  0
 26 70  1  0
 26 71  1  0
 26 72  1  0
 28 73  1  0
 28 74  1  0
 28 75  1  0
 29 76  1  0
 29 77  1  0
 30 78  1  0
 30 79  1  0
 32 80  1  0
 32 81  1  0
 32 82  1  0
M  END
>  <meeko>  (7) 
{"is_sidechain": [false], "intermolecular_energy": 2.731, "internal_energy": -0.839}

$$$$
EPH_relaxed_0001_pdb2pqr_Repair_360_r2_0001_out
     RDKit          3D

 82 86  0  0  0  0  0  0  0  0999 V2000
    3.2130   18.6490   -1.3320 C   0  0  0  0  0  0  0  0  0  0  0  0
    2.7340   17.6060   -2.3460 C   0  0  2  0  0  0  0  0  0  0  0  0
    1.3020   17.8920   -2.8400 C   0  0  0  0  0  0  0  0  0  0  0  0
    0.7120   19.1960   -2.2970 C   0  0  0  0  0  0  0  0  0  0  0  0
   -0.6600   18.9900   -1.7300 C   0  0  2  0  0  0  0  0  0  0  0  0
   -1.4140   20.1940   -1.5330 O   0  0  0  0  0  0  0  0  0  0  0  0
   -1.0730   19.4580   -0.3470 C   0  0  0  0  0  0  0  0  0  0  0  0
   -0.1140   20.1670    0.5560 C   0  0  0  0  0  0  0  0  0  0  0  0
   -2.2460   18.7990    0.3110 C   0  0  0  0  0  0  0  0  0  0  0  0
    2.8050   16.2130   -1.7310 C   0  0  1  0  0  0  0  0  0  0  0  0
    3.4480   16.2160   -0.3190 C   0  0  0  0  0  0  0  0  0  0  0  0
    2.7210   15.1230    0.5060 C   0  0  0  0  0  0  0  0  0  0  0  0
    1.9240   14.3100   -0.5410 C   0  0  1  0  0  0  0  0  0  0  0  0
    2.9640   13.3270   -1.1630 C   0  0  0  0  0  0  0  0  0  0  0  0
    0.6600   13.5560   -0.0140 C   0  0  2  0  0  0  0  0  0  0  0  0
    0.9400   12.4700    1.0400 C   0  0  0  0  0  0  0  0  0  0  0  0
    1.1850   11.1020    0.4970 C   0  0  0  0  0  0  0  0  0  0  0  0
    0.9020   10.6950   -0.7540 C   0  0  0  0  0  0  0  0  0  0  0  0
    0.1840   11.6240   -1.7420 C   0  0  1  0  0  0  0  0  0  0  0  0
   -0.9590   10.8480   -2.4470 C   0  0  0  0  0  0  0  0  0  0  0  0
   -0.4720    9.5610   -3.1060 C   0  0  0  0  0  0  0  0  0  0  0  0
    0.1830    8.6380   -2.0820 C   0  0  2  0  0  0  0  0  0  0  0  0
   -0.8160    8.1860   -1.1630 O   0  0  0  0  0  0  0  0  0  0  0  0
    1.3440    9.3150   -1.3010 C   0  0  0  0  0  0  0  0  0  0  0  0
    2.5510    9.5310   -2.2470 C   0  0  0  0  0  0  0  0  0  0  0  0
    1.8230    8.3250   -0.2050 C   0  0  0  0  0  0  0  0  0  0  0  0
   -0.2980   13.0200   -1.1540 C   0  0  1  0  0  0  0  0  0  0  0  0
   -1.7110   12.8680   -0.5130 C   0  0  0  0  0  0  0  0  0  0  0  0
   -0.4550   14.0490   -2.3360 C   0  0  0  0  0  0  0  0  0  0  0  0
    0.8000   14.8500   -2.7310 C   0  0  0  0  0  0  0  0  0  0  0  0
    1.4660   15.4700   -1.4980 C   0  0  2  0  0  0  0  0  0  0  0  0
    0.4500   16.4810   -0.8640 C   0  0  0  0  0  0  0  0  0  0  0  0
    3.0411   18.2747   -0.3120 H   0  0  0  0  0  0  0  0  0  0  0  0
    4.2872   18.8359   -1.4778 H   0  0  0  0  0  0  0  0  0  0  0  0
    2.6548   19.5855   -1.4778 H   0  0  0  0  0  0  0  0  0  0  0  0
    3.4012   17.6614   -3.2188 H   0  0  0  0  0  0  0  0  0  0  0  0
    1.3186   17.9494   -3.9384 H   0  0  0  0  0  0  0  0  0  0  0  0
    0.6658   17.0737   -2.4717 H   0  0  0  0  0  0  0  0  0  0  0  0
    1.3705   19.5827   -1.5053 H   0  0  0  0  0  0  0  0  0  0  0  0
    0.6351   19.9105   -3.1298 H   0  0  0  0  0  0  0  0  0  0  0  0
   -0.7489   18.0179   -2.2371 H   0  0  0  0  0  0  0  0  0  0  0  0
   -0.3823   19.9686    1.6042 H   0  0  0  0  0  0  0  0  0  0  0  0
    0.9067   19.8047    0.3639 H   0  0  0  0  0  0  0  0  0  0  0  0
   -0.1612   21.2491    0.3639 H   0  0  0  0  0  0  0  0  0  0  0  0
   -2.1359   18.8608    1.4037 H   0  0  0  0  0  0  0  0  0  0  0  0
   -3.1717   19.3091    0.0063 H   0  0  0  0  0  0  0  0  0  0  0  0
   -2.2919   17.7430    0.0063 H   0  0  0  0  0  0  0  0  0  0  0  0
    3.3912   15.6983   -2.5066 H   0  0  0  0  0  0  0  0  0  0  0  0
    4.5211   15.9852   -0.3910 H   0  0  0  0  0  0  0  0  0  0  0  0
    3.3488   17.2022    0.1580 H   0  0  0  0  0  0  0  0  0  0  0  0
    3.4475   14.4808    1.0254 H   0  0  0  0  0  0  0  0  0  0  0  0
    2.0721   15.5504    1.2846 H   0  0  0  0  0  0  0  0  0  0  0  0
    3.5088   12.8120   -0.3580 H   0  0  0  0  0  0  0  0  0  0  0  0
    2.4412   12.5853   -1.7847 H   0  0  0  0  0  0  0  0  0  0  0  0
    3.6751   13.8907   -1.7847 H   0  0  0  0  0  0  0  0  0  0  0  0
    0.1144   14.3521    0.5138 H   0  0  0  0  0  0  0  0  0  0  0  0
    1.8295   12.7729    1.6119 H   0  0  0  0  0  0  0  0  0  0  0  0
    0.0277   12.3960    1.6501 H   0  0  0  0  0  0  0  0  0  0  0  0
    1.6351   10.3636    1.1769 H   0  0  0  0  0  0  0  0  0  0  0  0
    0.9407   11.9249   -2.4815 H   0  0  0  0  0  0  0  0  0  0  0  0
   -1.7256   10.5937   -1.7002 H   0  0  0  0  0  0  0  0  0  0  0  0
   -1.3642   11.4959   -3.2382 H   0  0  0  0  0  0  0  0  0  0  0  0
   -1.3290    9.0431   -3.5613 H   0  0  0  0  0  0  0  0  0  0  0  0
    0.2730    9.8194   -3.8730 H   0  0  0  0  0  0  0  0  0  0  0  0
    0.6257    7.7953   -2.6333 H   0  0  0  0  0  0  0  0  0  0  0  0
   -1.4280    7.6110   -1.6530 H   0  0  0  0  0  0  0  0  0  0  0  0
    3.4604    9.6937   -1.6499 H   0  0  0  0  0  0  0  0  0  0  0  0
    2.6832    8.6422   -2.8815 H   0  0  0  0  0  0  0  0  0  0  0  0
    2.3668   10.4104   -2.8815 H   0  0  0  0  0  0  0  0  0  0  0  0
    1.6173    8.7502    0.7884 H   0  0  0  0  0  0  0  0  0  0  0  0
    1.2871    7.3705   -0.3135 H   0  0  0  0  0  0  0  0  0  0  0  0
    2.9040    8.1529   -0.3135 H   0  0  0  0  0  0  0  0  0  0  0  0
   -1.6194   12.8779    0.5831 H   0  0  0  0  0  0  0  0  0  0  0  0
   -2.3514   13.7024   -0.8349 H   0  0  0  0  0  0  0  0  0  0  0  0
   -2.1592   11.9165   -0.8349 H   0  0  0  0  0  0  0  0  0  0  0  0
   -0.7851   13.4888   -3.2232 H   0  0  0  0  0  0  0  0  0  0  0  0
   -1.1721   14.7991   -1.9712 H   0  0  0  0  0  0  0  0  0  0  0  0
    1.5154   14.1769   -3.2261 H   0  0  0  0  0  0  0  0  0  0  0  0
    0.4990   15.6601   -3.4115 H   0  0  0  0  0  0  0  0  0  0  0  0
    0.5097   16.4216    0.2328 H   0  0  0  0  0  0  0  0  0  0  0  0
    0.6971   17.5021   -1.1899 H   0  0  0  0  0  0  0  0  0  0  0  0
   -0.5699   16.2288   -1.1899 H   0  0  0  0  0  0  0  0  0  0  0  0
  1  2  1  0
  2  3  1  0
  3  4  1  0
  4  5  1  0
  5  6  1  0
  6  7  1  0
  7  8  1  0
  7  9  1  0
  2 10  1  0
 10 11  1  0
 11 12  1  0
 12 13  1  0
 13 14  1  6
 13 15  1  0
 15 16  1  0
 16 17  1  0
 17 18  2  0
 18 19  1  0
 19 20  1  0
 20 21  1  0
 21 22  1  0
 22 23  1  0
 22 24  1  0
 24 25  1  0
 24 26  1  0
 19 27  1  0
 27 28  1  1
 27 29  1  0
 29 30  1  0
 30 31  1  0
 31 32  1  1
  7  5  1  0
 31 10  1  0
 31 13  1  0
 27 15  1  0
 24 18  1  0
  1 33  1  0
  1 34  1  0
  1 35  1  0
  2 36  1  6
  3 37  1  0
  3 38  1  0
  4 39  1  0
  4 40  1  0
  5 41  1  6
  8 42  1  0
  8 43  1  0
  8 44  1  0
  9 45  1  0
  9 46  1  0
  9 47  1  0
 10 48  1  6
 11 49  1  0
 11 50  1  0
 12 51  1  0
 12 52  1  0
 14 53  1  0
 14 54  1  0
 14 55  1  0
 15 56  1  1
 16 57  1  0
 16 58  1  0
 17 59  1  0
 19 60  1  6
 20 61  1  0
 20 62  1  0
 21 63  1  0
 21 64  1  0
 22 65  1  6
 23 66  1  0
 25 67  1  0
 25 68  1  0
 25 69  1  0
 26 70  1  0
 26 71  1  0
 26 72  1  0
 28 73  1  0
 28 74  1  0
 28 75  1  0
 29 76  1  0
 29 77  1  0
 30 78  1  0
 30 79  1  0
 32 80  1  0
 32 81  1  0
 32 82  1  0
M  END
>  <meeko>  (8) 
{"is_sidechain": [false], "intermolecular_energy": 2.731, "internal_energy": -0.839}

$$$$
EPH_relaxed_0001_pdb2pqr_Repair_360_r2_0001_out
     RDKit          3D

 82 86  0  0  0  0  0  0  0  0999 V2000
  -14.5330    5.5350    0.3770 C   0  0  0  0  0  0  0  0  0  0  0  0
  -13.9530    6.9460    0.2500 C   0  0  2  0  0  0  0  0  0  0  0  0
  -15.0380    7.9940   -0.0650 C   0  0  0  0  0  0  0  0  0  0  0  0
  -14.5690    9.4400    0.1190 C   0  0  0  0  0  0  0  0  0  0  0  0
  -15.2840   10.3770   -0.8070 C   0  0  2  0  0  0  0  0  0  0  0  0
  -15.2040   10.0250   -2.1940 O   0  0  0  0  0  0  0  0  0  0  0  0
  -14.5740   11.2600   -1.8160 C   0  0  0  0  0  0  0  0  0  0  0  0
  -13.0840   11.2490   -1.9510 C   0  0  0  0  0  0  0  0  0  0  0  0
  -15.2820   12.4770   -2.3240 C   0  0  0  0  0  0  0  0  0  0  0  0
  -12.8760    6.9700   -0.8280 C   0  0  1  0  0  0  0  0  0  0  0  0
  -13.2200    7.9350   -1.9940 C   0  0  0  0  0  0  0  0  0  0  0  0
  -11.8800    8.5470   -2.4770 C   0  0  0  0  0  0  0  0  0  0  0  0
  -10.7900    7.6770   -1.8090 C   0  0  1  0  0  0  0  0  0  0  0  0
  -10.6800    6.4080   -2.7110 C   0  0  0  0  0  0  0  0  0  0  0  0
   -9.3980    8.3560   -1.5970 C   0  0  2  0  0  0  0  0  0  0  0  0
   -8.6760    8.7820   -2.8870 C   0  0  0  0  0  0  0  0  0  0  0  0
   -7.7700    7.7540   -3.4800 C   0  0  0  0  0  0  0  0  0  0  0  0
   -7.3230    6.6500   -2.8520 C   0  0  0  0  0  0  0  0  0  0  0  0
   -7.6510    6.3960   -1.3750 C   0  0  1  0  0  0  0  0  0  0  0  0
   -6.3640    5.9640   -0.6250 C   0  0  0  0  0  0  0  0  0  0  0  0
   -5.6760    4.7720   -1.2830 C   0  0  0  0  0  0  0  0  0  0  0  0
   -5.3130    5.0830   -2.7330 C   0  0  2  0  0  0  0  0  0  0  0  0
   -4.3070    6.1000   -2.7480 O   0  0  0  0  0  0  0  0  0  0  0  0
   -6.5310    5.5390   -3.5850 C   0  0  0  0  0  0  0  0  0  0  0  0
   -7.4810    4.3390   -3.8200 C   0  0  0  0  0  0  0  0  0  0  0  0
   -6.0050    5.9570   -4.9840 C   0  0  0  0  0  0  0  0  0  0  0  0
   -8.4300    7.5630   -0.6280 C   0  0  1  0  0  0  0  0  0  0  0  0
   -7.4160    8.6030   -0.0620 C   0  0  0  0  0  0  0  0  0  0  0  0
   -9.1890    6.9610    0.6140 C   0  0  0  0  0  0  0  0  0  0  0  0
  -10.6070    6.4150    0.3640 C   0  0  0  0  0  0  0  0  0  0  0  0
  -11.4570    7.4290   -0.4080 C   0  0  2  0  0  0  0  0  0  0  0  0
  -11.6040    8.7080    0.4850 C   0  0  0  0  0  0  0  0  0  0  0  0
  -14.6392    5.2766    1.4409 H   0  0  0  0  0  0  0  0  0  0  0  0
  -15.5190    5.4987   -0.1093 H   0  0  0  0  0  0  0  0  0  0  0  0
  -13.8576    4.8158   -0.1093 H   0  0  0  0  0  0  0  0  0  0  0  0
  -13.5117    7.2110    1.2221 H   0  0  0  0  0  0  0  0  0  0  0  0
  -15.3552    7.8621   -1.1100 H   0  0  0  0  0  0  0  0  0  0  0  0
  -15.8601    7.8296    0.6471 H   0  0  0  0  0  0  0  0  0  0  0  0
  -14.7624    9.7481    1.1571 H   0  0  0  0  0  0  0  0  0  0  0  0
  -13.4943    9.4838   -0.1116 H   0  0  0  0  0  0  0  0  0  0  0  0
  -16.0409   10.5954   -0.0393 H   0  0  0  0  0  0  0  0  0  0  0  0
  -12.6253   11.2456   -0.9512 H   0  0  0  0  0  0  0  0  0  0  0  0
  -12.7723   10.3485   -2.5005 H   0  0  0  0  0  0  0  0  0  0  0  0
  -12.7590   12.1448   -2.5005 H   0  0  0  0  0  0  0  0  0  0  0  0
  -15.6324   13.0794   -1.4729 H   0  0  0  0  0  0  0  0  0  0  0  0
  -14.5906   13.0746   -2.9362 H   0  0  0  0  0  0  0  0  0  0  0  0
  -16.1433   12.1714   -2.9362 H   0  0  0  0  0  0  0  0  0  0  0  0
  -12.8612    5.9034   -1.0966 H   0  0  0  0  0  0  0  0  0  0  0  0
  -13.7015    7.3821   -2.8140 H   0  0  0  0  0  0  0  0  0  0  0  0
  -13.9172    8.7197   -1.6651 H   0  0  0  0  0  0  0  0  0  0  0  0
  -11.8016    8.4939   -3.5729 H   0  0  0  0  0  0  0  0  0  0  0  0
  -11.7868    9.6100   -2.2098 H   0  0  0  0  0  0  0  0  0  0  0  0
  -10.6024    5.5128   -2.0765 H   0  0  0  0  0  0  0  0  0  0  0  0
  -11.5748    6.3309   -3.3461 H   0  0  0  0  0  0  0  0  0  0  0  0
   -9.7852    6.4860   -3.3461 H   0  0  0  0  0  0  0  0  0  0  0  0
   -9.6683    9.2905   -1.0835 H   0  0  0  0  0  0  0  0  0  0  0  0
   -9.4403    9.0345   -3.6367 H   0  0  0  0  0  0  0  0  0  0  0  0
   -8.0333    9.6306   -2.6099 H   0  0  0  0  0  0  0  0  0  0  0  0
   -7.4399    7.9118   -4.5174 H   0  0  0  0  0  0  0  0  0  0  0  0
   -8.3828    5.5748   -1.3628 H   0  0  0  0  0  0  0  0  0  0  0  0
   -5.6631    6.8117   -0.6102 H   0  0  0  0  0  0  0  0  0  0  0  0
   -6.6554    5.6620    0.3918 H   0  0  0  0  0  0  0  0  0  0  0  0
   -4.7583    4.5333   -0.7255 H   0  0  0  0  0  0  0  0  0  0  0  0
   -6.3676    3.9167   -1.2701 H   0  0  0  0  0  0  0  0  0  0  0  0
   -4.9433    4.1522   -3.1879 H   0  0  0  0  0  0  0  0  0  0  0  0
   -3.6690    5.8730   -3.4450 H   0  0  0  0  0  0  0  0  0  0  0  0
   -7.8036    3.9314   -2.8506 H   0  0  0  0  0  0  0  0  0  0  0  0
   -8.3613    4.6740   -4.3882 H   0  0  0  0  0  0  0  0  0  0  0  0
   -6.9529    3.5591   -4.3882 H   0  0  0  0  0  0  0  0  0  0  0  0
   -5.1488    6.6374   -4.8656 H   0  0  0  0  0  0  0  0  0  0  0  0
   -5.6879    5.0618   -5.5390 H   0  0  0  0  0  0  0  0  0  0  0  0
   -6.8055    6.4681   -5.5390 H   0  0  0  0  0  0  0  0  0  0  0  0
   -7.4404    8.5780    1.0374 H   0  0  0  0  0  0  0  0  0  0  0  0
   -6.4030    8.3554   -0.4120 H   0  0  0  0  0  0  0  0  0  0  0  0
   -7.6891    9.6094   -0.4120 H   0  0  0  0  0  0  0  0  0  0  0  0
   -8.5791    6.1348    1.0082 H   0  0  0  0  0  0  0  0  0  0  0  0
   -9.3238    7.8056    1.3057 H   0  0  0  0  0  0  0  0  0  0  0  0
  -10.5369    5.4855   -0.2201 H   0  0  0  0  0  0  0  0  0  0  0  0
  -11.0856    6.2240    1.3358 H   0  0  0  0  0  0  0  0  0  0  0  0
  -11.5709    8.4201    1.5461 H   0  0  0  0  0  0  0  0  0  0  0  0
  -10.7799    9.4035    0.2679 H   0  0  0  0  0  0  0  0  0  0  0  0
  -12.5644    9.1984    0.2679 H   0  0  0  0  0  0  0  0  0  0  0  0
  1  2  1  0
  2  3  1  0
  3  4  1  0
  4  5  1  0
  5  6  1  0
  6  7  1  0
  7  8  1  0
  7  9  1  0
  2 10  1  0
 10 11  1  0
 11 12  1  0
 12 13  1  0
 13 14  1  6
 13 15  1  0
 15 16  1  0
 16 17  1  0
 17 18  2  0
 18 19  1  0
 19 20  1  0
 20 21  1  0
 21 22  1  0
 22 23  1  0
 22 24  1  0
 24 25  1  0
 24 26  1  0
 19 27  1  0
 27 28  1  1
 27 29  1  0
 29 30  1  0
 30 31  1  0
 31 32  1  1
  7  5  1  0
 31 10  1  0
 31 13  1  0
 27 15  1  0
 24 18  1  0
  1 33  1  0
  1 34  1  0
  1 35  1  0
  2 36  1  1
  3 37  1  0
  3 38  1  0
  4 39  1  0
  4 40  1  0
  5 41  1  1
  8 42  1  0
  8 43  1  0
  8 44  1  0
  9 45  1  0
  9 46  1  0
  9 47  1  0
 10 48  1  6
 11 49  1  0
 11 50  1  0
 12 51  1  0
 12 52  1  0
 14 53  1  0
 14 54  1  0
 14 55  1  0
 15 56  1  1
 16 57  1  0
 16 58  1  0
 17 59  1  0
 19 60  1  6
 20 61  1  0
 20 62  1  0
 21 63  1  0
 21 64  1  0
 22 65  1  6
 23 66  1  0
 25 67  1  0
 25 68  1  0
 25 69  1  0
 26 70  1  0
 26 71  1  0
 26 72  1  0
 28 73  1  0
 28 74  1  0
 28 75  1  0
 29 76  1  0
 29 77  1  0
 30 78  1  0
 30 79  1  0
 32 80  1  0
 32 81  1  0
 32 82  1  0
M  END
>  <meeko>  (9) 
{"is_sidechain": [false], "intermolecular_energy": 2.731, "internal_energy": -0.839}

$$$$
EPH_relaxed_0001_pdb2pqr_Repair_360_r2_0001_out
     RDKit          3D

 82 86  0  0  0  0  0  0  0  0999 V2000
   -0.6250   16.6500    0.0100 C   0  0  0  0  0  0  0  0  0  0  0  0
   -1.0400   15.1920    0.2270 C   0  0  2  0  0  0  0  0  0  0  0  0
   -1.6290   14.9590    1.6330 C   0  0  0  0  0  0  0  0  0  0  0  0
   -0.5810   14.5880    2.6860 C   0  0  0  0  0  0  0  0  0  0  0  0
   -1.1820   14.4870    4.0550 C   0  0  2  0  0  0  0  0  0  0  0  0
   -0.3030   14.8600    5.1240 O   0  0  0  0  0  0  0  0  0  0  0  0
   -0.7230   13.4860    5.0990 C   0  0  0  0  0  0  0  0  0  0  0  0
    0.3810   12.5160    4.8170 C   0  0  0  0  0  0  0  0  0  0  0  0
   -1.6650   13.1230    6.2050 C   0  0  0  0  0  0  0  0  0  0  0  0
    0.1550   14.2720    0.0050 C   0  0  1  0  0  0  0  0  0  0  0  0
    0.3880   13.2980    1.1900 C   0  0  0  0  0  0  0  0  0  0  0  0
    0.9090   11.9700    0.5810 C   0  0  0  0  0  0  0  0  0  0  0  0
    1.2720   12.3270   -0.8790 C   0  0  1  0  0  0  0  0  0  0  0  0
    2.6840   12.9860   -0.7920 C   0  0  0  0  0  0  0  0  0  0  0  0
    1.2490   11.1470   -1.9050 C   0  0  2  0  0  0  0  0  0  0  0  0
    2.2570   10.0190   -1.6240 C   0  0  0  0  0  0  0  0  0  0  0  0
    3.5930   10.1830   -2.2690 C   0  0  0  0  0  0  0  0  0  0  0  0
    3.8800   11.0400   -3.2670 C   0  0  0  0  0  0  0  0  0  0  0  0
    2.7810   11.8910   -3.9140 C   0  0  1  0  0  0  0  0  0  0  0  0
    2.9170   11.8250   -5.4580 C   0  0  0  0  0  0  0  0  0  0  0  0
    4.3120   12.2090   -5.9400 C   0  0  0  0  0  0  0  0  0  0  0  0
    5.3720   11.3030   -5.3190 C   0  0  2  0  0  0  0  0  0  0  0  0
    5.1970    9.9760   -5.8250 O   0  0  0  0  0  0  0  0  0  0  0  0
    5.3260   11.2810   -3.7660 C   0  0  0  0  0  0  0  0  0  0  0  0
    5.8110   12.6440   -3.2110 C   0  0  0  0  0  0  0  0  0  0  0  0
    6.3500   10.2230   -3.2730 C   0  0  0  0  0  0  0  0  0  0  0  0
    1.2990   11.6030   -3.4190 C   0  0  1  0  0  0  0  0  0  0  0  0
    0.6750   10.4430   -4.2540 C   0  0  0  0  0  0  0  0  0  0  0  0
    0.4100   12.8740   -3.6910 C   0  0  0  0  0  0  0  0  0  0  0  0
    0.3800   13.9490   -2.5880 C   0  0  0  0  0  0  0  0  0  0  0  0
    0.1040   13.3220   -1.2180 C   0  0  2  0  0  0  0  0  0  0  0  0
   -1.3200   12.6700   -1.2690 C   0  0  0  0  0  0  0  0  0  0  0  0
   -0.4854   17.1404    0.9847 H   0  0  0  0  0  0  0  0  0  0  0  0
    0.3181   16.6826   -0.5553 H   0  0  0  0  0  0  0  0  0  0  0  0
   -1.4096   17.1743   -0.5553 H   0  0  0  0  0  0  0  0  0  0  0  0
   -1.8283   14.9607   -0.5044 H   0  0  0  0  0  0  0  0  0  0  0  0
   -2.1336   15.8818    1.9554 H   0  0  0  0  0  0  0  0  0  0  0  0
   -2.3210   14.1075    1.5544 H   0  0  0  0  0  0  0  0  0  0  0  0
   -0.1360   13.6179    2.4196 H   0  0  0  0  0  0  0  0  0  0  0  0
    0.1820   15.3802    2.7042 H   0  0  0  0  0  0  0  0  0  0  0  0
   -2.1780   14.7382    3.6615 H   0  0  0  0  0  0  0  0  0  0  0  0
    0.7983   12.1493    5.7664 H   0  0  0  0  0  0  0  0  0  0  0  0
   -0.0147   11.6681    4.2386 H   0  0  0  0  0  0  0  0  0  0  0  0
    1.1709   13.0175    4.2386 H   0  0  0  0  0  0  0  0  0  0  0  0
   -1.1809   13.3095    7.1750 H   0  0  0  0  0  0  0  0  0  0  0  0
   -2.5760   13.7345    6.1262 H   0  0  0  0  0  0  0  0  0  0  0  0
   -1.9301   12.0583    6.1262 H   0  0  0  0  0  0  0  0  0  0  0  0
    0.9434   15.0258   -0.1370 H   0  0  0  0  0  0  0  0  0  0  0  0
    1.1336   13.7155    1.8826 H   0  0  0  0  0  0  0  0  0  0  0  0
   -0.5408   13.1355    1.7565 H   0  0  0  0  0  0  0  0  0  0  0  0
    1.7959   11.6144    1.1259 H   0  0  0  0  0  0  0  0  0  0  0  0
    0.1639   11.1630    0.6404 H   0  0  0  0  0  0  0  0  0  0  0  0
    2.9634   13.1164    0.2639 H   0  0  0  0  0  0  0  0  0  0  0  0
    3.4218   12.3392   -1.2893 H   0  0  0  0  0  0  0  0  0  0  0  0
    2.6621   13.9669   -1.2893 H   0  0  0  0  0  0  0  0  0  0  0  0
    0.2545   10.7079   -1.7372 H   0  0  0  0  0  0  0  0  0  0  0  0
    2.4094    9.9625   -0.5361 H   0  0  0  0  0  0  0  0  0  0  0  0
    1.8205    9.1062   -2.0556 H   0  0  0  0  0  0  0  0  0  0  0  0
    4.4125    9.5501   -1.8976 H   0  0  0  0  0  0  0  0  0  0  0  0
    2.9507   12.9212   -3.5679 H   0  0  0  0  0  0  0  0  0  0  0  0
    2.7006   10.7980   -5.7873 H   0  0  0  0  0  0  0  0  0  0  0  0
    2.2057   12.5464   -5.8866 H   0  0  0  0  0  0  0  0  0  0  0  0
    4.3535   12.1136   -7.0351 H   0  0  0  0  0  0  0  0  0  0  0  0
    4.5152   13.2466   -5.6365 H   0  0  0  0  0  0  0  0  0  0  0  0
    6.3563   11.7077   -5.5970 H   0  0  0  0  0  0  0  0  0  0  0  0
    4.3150    9.6720   -5.5530 H   0  0  0  0  0  0  0  0  0  0  0  0
    5.8012   12.6166   -2.1114 H   0  0  0  0  0  0  0  0  0  0  0  0
    6.8342   12.8404   -3.5638 H   0  0  0  0  0  0  0  0  0  0  0  0
    5.1419   13.4426   -3.5638 H   0  0  0  0  0  0  0  0  0  0  0  0
    6.3628   10.2098   -2.1732 H   0  0  0  0  0  0  0  0  0  0  0  0
    6.0609    9.2302   -3.6483 H   0  0  0  0  0  0  0  0  0  0  0  0
    7.3517   10.4795   -3.6483 H   0  0  0  0  0  0  0  0  0  0  0  0
    0.2652    9.6813   -3.5744 H   0  0  0  0  0  0  0  0  0  0  0  0
   -0.1311   10.8403   -4.8883 H   0  0  0  0  0  0  0  0  0  0  0  0
    1.4508    9.9893   -4.8883 H   0  0  0  0  0  0  0  0  0  0  0  0
    0.7824   13.3503   -4.6099 H   0  0  0  0  0  0  0  0  0  0  0  0
   -0.6212   12.4963   -3.7532 H   0  0  0  0  0  0  0  0  0  0  0  0
    1.3525   14.4623   -2.5594 H   0  0  0  0  0  0  0  0  0  0  0  0
   -0.4257   14.6624   -2.8157 H   0  0  0  0  0  0  0  0  0  0  0  0
   -1.6839   12.5034   -0.2444 H   0  0  0  0  0  0  0  0  0  0  0  0
   -2.0118   13.3411   -1.7992 H   0  0  0  0  0  0  0  0  0  0  0  0
   -1.2640   11.7078   -1.7992 H   0  0  0  0  0  0  0  0  0  0  0  0
  1  2  1  0
  2  3  1  0
  3  4  1  0
  4  5  1  0
  5  6  1  0
  6  7  1  0
  7  8  1  0
  7  9  1  0
  2 10  1  0
 10 11  1  0
 11 12  1  0
 12 13  1  0
 13 14  1  1
 13 15  1  0
 15 16  1  0
 16 17  1  0
 17 18  2  0
 18 19  1  0
 19 20  1  0
 20 21  1  0
 21 22  1  0
 22 23  1  0
 22 24  1  0
 24 25  1  0
 24 26  1  0
 19 27  1  0
 27 28  1  6
 27 29  1  0
 29 30  1  0
 30 31  1  0
 31 32  1  6
  7  5  1  0
 31 10  1  0
 31 13  1  0
 27 15  1  0
 24 18  1  0
  1 33  1  0
  1 34  1  0
  1 35  1  0
  2 36  1  6
  3 37  1  0
  3 38  1  0
  4 39  1  0
  4 40  1  0
  5 41  1  6
  8 42  1  0
  8 43  1  0
  8 44  1  0
  9 45  1  0
  9 46  1  0
  9 47  1  0
 10 48  1  6
 11 49  1  0
 11 50  1  0
 12 51  1  0
 12 52  1  0
 14 53  1  0
 14 54  1  0
 14 55  1  0
 15 56  1  6
 16 57  1  0
 16 58  1  0
 17 59  1  0
 19 60  1  1
 20 61  1  0
 20 62  1  0
 21 63  1  0
 21 64  1  0
 22 65  1  1
 23 66  1  0
 25 67  1  0
 25 68  1  0
 25 69  1  0
 26 70  1  0
 26 71  1  0
 26 72  1  0
 28 73  1  0
 28 74  1  0
 28 75  1  0
 29 76  1  0
 29 77  1  0
 30 78  1  0
 30 79  1  0
 32 80  1  0
 32 81  1  0
 32 82  1  0
M  END
>  <meeko>  (10) 
{"is_sidechain": [false], "intermolecular_energy": 2.731, "internal_energy": -0.839}

$$$$
EPH_relaxed_0001_pdb2pqr_Repair_360_r2_0001_out
     RDKit          3D

 82 86  0  0  0  0  0  0  0  0999 V2000
   -5.5030    7.0930   -0.2180 C   0  0  0  0  0  0  0  0  0  0  0  0
   -5.6500    6.6950   -1.6890 C   0  0  2  0  0  0  0  0  0  0  0  0
   -4.5520    7.3190   -2.5730 C   0  0  0  0  0  0  0  0  0  0  0  0
   -3.1320    7.0660   -2.0590 C   0  0  0  0  0  0  0  0  0  0  0  0
   -2.1420    8.0050   -2.6810 C   0  0  2  0  0  0  0  0  0  0  0  0
   -0.8270    7.4620   -2.8510 O   0  0  0  0  0  0  0  0  0  0  0  0
   -0.9420    8.5660   -1.9400 C   0  0  0  0  0  0  0  0  0  0  0  0
   -0.6690    8.2090   -0.5130 C   0  0  0  0  0  0  0  0  0  0  0  0
   -0.3180    9.8310   -2.4430 C   0  0  0  0  0  0  0  0  0  0  0  0
   -7.0260    7.1040   -2.2020 C   0  0  1  0  0  0  0  0  0  0  0  0
   -7.3560    6.4840   -3.5860 C   0  0  0  0  0  0  0  0  0  0  0  0
   -8.8780    6.1900   -3.5930 C   0  0  0  0  0  0  0  0  0  0  0  0
   -9.4270    6.9470   -2.3610 C   0  0  1  0  0  0  0  0  0  0  0  0
   -9.5830    8.4260   -2.8350 C   0  0  0  0  0  0  0  0  0  0  0  0
  -10.7550    6.3950   -1.7460 C   0  0  2  0  0  0  0  0  0  0  0  0
  -11.9760    6.4430   -2.6810 C   0  0  0  0  0  0  0  0  0  0  0  0
  -12.7890    7.6930   -2.6040 C   0  0  0  0  0  0  0  0  0  0  0  0
  -12.7200    8.6120   -1.6230 C   0  0  0  0  0  0  0  0  0  0  0  0
  -11.8240    8.3900   -0.3980 C   0  0  1  0  0  0  0  0  0  0  0  0
  -12.6160    8.7290    0.8920 C   0  0  0  0  0  0  0  0  0  0  0  0
  -13.2210   10.1290    0.8560 C   0  0  0  0  0  0  0  0  0  0  0  0
  -14.1510   10.2920   -0.3430 C   0  0  2  0  0  0  0  0  0  0  0  0
  -15.2870    9.4410   -0.1630 O   0  0  0  0  0  0  0  0  0  0  0  0
  -13.4650    9.9680   -1.6990 C   0  0  0  0  0  0  0  0  0  0  0  0
  -12.4320   11.0710   -2.0370 C   0  0  0  0  0  0  0  0  0  0  0  0
  -14.5480   10.0330   -2.8100 C   0  0  0  0  0  0  0  0  0  0  0  0
  -11.0980    6.9790   -0.3160 C   0  0  1  0  0  0  0  0  0  0  0  0
  -12.0330    5.9400    0.3760 C   0  0  0  0  0  0  0  0  0  0  0  0
   -9.8240    7.1080    0.5990 C   0  0  0  0  0  0  0  0  0  0  0  0
   -8.5150    7.5420   -0.0890 C   0  0  0  0  0  0  0  0  0  0  0  0
   -8.2530    6.7050   -1.3440 C   0  0  2  0  0  0  0  0  0  0  0  0
   -8.0700    5.2140   -0.8960 C   0  0  0  0  0  0  0  0  0  0  0  0
   -5.8130    6.2536    0.4217 H   0  0  0  0  0  0  0  0  0  0  0  0
   -4.4527    7.3445   -0.0094 H   0  0  0  0  0  0  0  0  0  0  0  0
   -6.1377    7.9669   -0.0094 H   0  0  0  0  0  0  0  0  0  0  0  0
   -5.5395    5.6022   -1.7486 H   0  0  0  0  0  0  0  0  0  0  0  0
   -4.6365    6.8939   -3.5840 H   0  0  0  0  0  0  0  0  0  0  0  0
   -4.7094    8.4076   -2.5616 H   0  0  0  0  0  0  0  0  0  0  0  0
   -3.1178    7.2044   -0.9678 H   0  0  0  0  0  0  0  0  0  0  0  0
   -2.8472    6.0385   -2.3295 H   0  0  0  0  0  0  0  0  0  0  0  0
   -2.9343    8.4854   -3.2739 H   0  0  0  0  0  0  0  0  0  0  0  0
   -1.2030    8.9073    0.1483 H   0  0  0  0  0  0  0  0  0  0  0  0
   -1.0151    7.1830   -0.3190 H   0  0  0  0  0  0  0  0  0  0  0  0
    0.4118    8.2742   -0.3190 H   0  0  0  0  0  0  0  0  0  0  0  0
   -0.0111   10.4531   -1.5893 H   0  0  0  0  0  0  0  0  0  0  0  0
    0.5632    9.5872   -3.0546 H   0  0  0  0  0  0  0  0  0  0  0  0
   -1.0477   10.3819   -3.0546 H   0  0  0  0  0  0  0  0  0  0  0  0
   -6.9056    8.1974   -2.2002 H   0  0  0  0  0  0  0  0  0  0  0  0
   -7.1034    7.1927   -4.3885 H   0  0  0  0  0  0  0  0  0  0  0  0
   -6.7755    5.5652   -3.7557 H   0  0  0  0  0  0  0  0  0  0  0  0
   -9.3417    6.5647   -4.5174 H   0  0  0  0  0  0  0  0  0  0  0  0
   -9.0950    5.1124   -3.5514 H   0  0  0  0  0  0  0  0  0  0  0  0
   -9.6527    9.0866   -1.9582 H   0  0  0  0  0  0  0  0  0  0  0  0
   -8.7099    8.7110   -3.4404 H   0  0  0  0  0  0  0  0  0  0  0  0
  -10.4963    8.5226   -3.4404 H   0  0  0  0  0  0  0  0  0  0  0  0
  -10.5265    5.3278   -1.6084 H   0  0  0  0  0  0  0  0  0  0  0  0
  -11.6169    6.3342   -3.7150 H   0  0  0  0  0  0  0  0  0  0  0  0
  -12.6397    5.6277   -2.3573 H   0  0  0  0  0  0  0  0  0  0  0  0
  -13.5051    7.8786   -3.4181 H   0  0  0  0  0  0  0  0  0  0  0  0
  -10.9790    9.0852   -0.5100 H   0  0  0  0  0  0  0  0  0  0  0  0
  -13.4283    7.9967    1.0097 H   0  0  0  0  0  0  0  0  0  0  0  0
  -11.9115    8.6913    1.7360 H   0  0  0  0  0  0  0  0  0  0  0  0
  -13.7929   10.2977    1.7804 H   0  0  0  0  0  0  0  0  0  0  0  0
  -12.4049   10.8614    0.7688 H   0  0  0  0  0  0  0  0  0  0  0  0
  -14.4496   11.3497   -0.3880 H   0  0  0  0  0  0  0  0  0  0  0  0
  -15.1240    8.6220   -0.6610 H   0  0  0  0  0  0  0  0  0  0  0  0
  -12.0327   11.4974   -1.1049 H   0  0  0  0  0  0  0  0  0  0  0  0
  -11.6092   10.6356   -2.6231 H   0  0  0  0  0  0  0  0  0  0  0  0
  -12.9203   11.8635   -2.6231 H   0  0  0  0  0  0  0  0  0  0  0  0
  -15.5444   10.0928   -2.3477 H   0  0  0  0  0  0  0  0  0  0  0  0
  -14.3796   10.9227   -3.4346 H   0  0  0  0  0  0  0  0  0  0  0  0
  -14.4872    9.1296   -3.4346 H   0  0  0  0  0  0  0  0  0  0  0  0
  -11.9450    6.0378    1.4681 H   0  0  0  0  0  0  0  0  0  0  0  0
  -13.0743    6.1255    0.0740 H   0  0  0  0  0  0  0  0  0  0  0  0
  -11.7391    4.9239    0.0740 H   0  0  0  0  0  0  0  0  0  0  0  0
  -10.0498    7.8476    1.3813 H   0  0  0  0  0  0  0  0  0  0  0  0
   -9.6310    6.0901    0.9686 H   0  0  0  0  0  0  0  0  0  0  0  0
   -8.5917    8.6020   -0.3728 H   0  0  0  0  0  0  0  0  0  0  0  0
   -7.6823    7.3913    0.6137 H   0  0  0  0  0  0  0  0  0  0  0  0
   -8.0633    5.1594    0.2026 H   0  0  0  0  0  0  0  0  0  0  0  0
   -8.9006    4.6087   -1.2881 H   0  0  0  0  0  0  0  0  0  0  0  0
   -7.1177    4.8276   -1.2881 H   0  0  0  0  0  0  0  0  0  0  0  0
  1  2  1  0
  2  3  1  0
  3  4  1  0
  4  5  1  0
  5  6  1  0
  6  7  1  0
  7  8  1  0
  7  9  1  0
  2 10  1  0
 10 11  1  0
 11 12  1  0
 12 13  1  0
 13 14  1  6
 13 15  1  0
 15 16  1  0
 16 17  1  0
 17 18  2  0
 18 19  1  0
 19 20  1  0
 20 21  1  0
 21 22  1  0
 22 23  1  0
 22 24  1  0
 24 25  1  0
 24 26  1  0
 19 27  1  0
 27 28  1  1
 27 29  1  0
 29 30  1  0
 30 31  1  0
 31 32  1  1
  7  5  1  0
 31 10  1  0
 31 13  1  0
 27 15  1  0
 24 18  1  0
  1 33  1  0
  1 34  1  0
  1 35  1  0
  2 36  1  1
  3 37  1  0
  3 38  1  0
  4 39  1  0
  4 40  1  0
  5 41  1  6
  8 42  1  0
  8 43  1  0
  8 44  1  0
  9 45  1  0
  9 46  1  0
  9 47  1  0
 10 48  1  6
 11 49  1  0
 11 50  1  0
 12 51  1  0
 12 52  1  0
 14 53  1  0
 14 54  1  0
 14 55  1  0
 15 56  1  1
 16 57  1  0
 16 58  1  0
 17 59  1  0
 19 60  1  6
 20 61  1  0
 20 62  1  0
 21 63  1  0
 21 64  1  0
 22 65  1  6
 23 66  1  0
 25 67  1  0
 25 68  1  0
 25 69  1  0
 26 70  1  0
 26 71  1  0
 26 72  1  0
 28 73  1  0
 28 74  1  0
 28 75  1  0
 29 76  1  0
 29 77  1  0
 30 78  1  0
 30 79  1  0
 32 80  1  0
 32 81  1  0
 32 82  1  0
M  END
>  <meeko>  (11) 
{"is_sidechain": [false], "intermolecular_energy": 2.731, "internal_energy": -0.839}

$$$$
EPH_relaxed_0001_pdb2pqr_Repair_360_r2_0001_out
     RDKit          3D

 82 86  0  0  0  0  0  0  0  0999 V2000
   -1.4340   16.5390   -6.0900 C   0  0  0  0  0  0  0  0  0  0  0  0
   -0.1740   15.9170   -6.7000 C   0  0  2  0  0  0  0  0  0  0  0  0
   -0.3770   15.5250   -8.1770 C   0  0  0  0  0  0  0  0  0  0  0  0
    0.2850   16.4890   -9.1660 C   0  0  0  0  0  0  0  0  0  0  0  0
    1.7130   16.1170   -9.4310 C   0  0  2  0  0  0  0  0  0  0  0  0
    2.2750   16.7020  -10.6130 O   0  0  0  0  0  0  0  0  0  0  0  0
    2.1510   15.2710  -10.6120 C   0  0  0  0  0  0  0  0  0  0  0  0
    1.1630   14.7440  -11.6040 C   0  0  0  0  0  0  0  0  0  0  0  0
    3.4620   14.5530  -10.5300 C   0  0  0  0  0  0  0  0  0  0  0  0
    0.2470   14.6960   -5.8900 C   0  0  1  0  0  0  0  0  0  0  0  0
    1.2490   13.7900   -6.6540 C   0  0  0  0  0  0  0  0  0  0  0  0
    2.2200   13.2060   -5.5950 C   0  0  0  0  0  0  0  0  0  0  0  0
    1.5520   13.5230   -4.2370 C   0  0  1  0  0  0  0  0  0  0  0  0
    0.4770   12.4080   -4.0480 C   0  0  0  0  0  0  0  0  0  0  0  0
    2.5080   13.6180   -3.0030 C   0  0  2  0  0  0  0  0  0  0  0  0
    3.2600   12.3200   -2.6580 C   0  0  0  0  0  0  0  0  0  0  0  0
    2.5630   11.4160   -1.6950 C   0  0  0  0  0  0  0  0  0  0  0  0
    1.5240   11.7590   -0.9130 C   0  0  0  0  0  0  0  0  0  0  0  0
    1.0060   13.2030   -0.8780 C   0  0  1  0  0  0  0  0  0  0  0  0
    0.7960   13.6430    0.5950 C   0  0  0  0  0  0  0  0  0  0  0  0
   -0.1010   12.6830    1.3700 C   0  0  0  0  0  0  0  0  0  0  0  0
    0.4760   11.2700    1.3620 C   0  0  2  0  0  0  0  0  0  0  0  0
    1.6960   11.2670    2.1100 O   0  0  0  0  0  0  0  0  0  0  0  0
    0.7400   10.7240   -0.0690 C   0  0  0  0  0  0  0  0  0  0  0  0
   -0.6100   10.4430   -0.7760 C   0  0  0  0  0  0  0  0  0  0  0  0
    1.4520    9.3510    0.0670 C   0  0  0  0  0  0  0  0  0  0  0  0
    1.8450   14.2600   -1.7170 C   0  0  1  0  0  0  0  0  0  0  0  0
    3.0110   14.8240   -0.8490 C   0  0  0  0  0  0  0  0  0  0  0  0
    0.9220   15.4860   -2.0700 C   0  0  0  0  0  0  0  0  0  0  0  0
    0.0930   15.3820   -3.3640 C   0  0  0  0  0  0  0  0  0  0  0  0
    0.9690   14.9500   -4.5430 C   0  0  2  0  0  0  0  0  0  0  0  0
    2.0470   16.0640   -4.7710 C   0  0  0  0  0  0  0  0  0  0  0  0
   -1.3653   16.5051   -4.9927 H   0  0  0  0  0  0  0  0  0  0  0  0
   -1.5232   17.5846   -6.4196 H   0  0  0  0  0  0  0  0  0  0  0  0
   -2.3183   15.9739   -6.4196 H   0  0  0  0  0  0  0  0  0  0  0  0
    0.6202   16.6773   -6.6665 H   0  0  0  0  0  0  0  0  0  0  0  0
    0.0481   14.5224   -8.3319 H   0  0  0  0  0  0  0  0  0  0  0  0
   -1.4590   15.5566   -8.3724 H   0  0  0  0  0  0  0  0  0  0  0  0
   -0.2717   16.4647  -10.1144 H   0  0  0  0  0  0  0  0  0  0  0  0
    0.2691   17.4968   -8.7255 H   0  0  0  0  0  0  0  0  0  0  0  0
    1.9185   16.0424   -8.3529 H   0  0  0  0  0  0  0  0  0  0  0  0
    0.3141   14.2912  -11.0709 H   0  0  0  0  0  0  0  0  0  0  0  0
    0.8015   15.5691  -12.2353 H   0  0  0  0  0  0  0  0  0  0  0  0
    1.6469   13.9842  -12.2353 H   0  0  0  0  0  0  0  0  0  0  0  0
    3.7333   14.4044   -9.4744 H   0  0  0  0  0  0  0  0  0  0  0  0
    3.3766   13.5757  -11.0277 H   0  0  0  0  0  0  0  0  0  0  0  0
    4.2395   15.1512  -11.0277 H   0  0  0  0  0  0  0  0  0  0  0  0
   -0.7400   14.2458   -5.7079 H   0  0  0  0  0  0  0  0  0  0  0  0
    0.7117   12.9772   -7.1646 H   0  0  0  0  0  0  0  0  0  0  0  0
    1.7953   14.3618   -7.4186 H   0  0  0  0  0  0  0  0  0  0  0  0
    2.3326   12.1199   -5.7283 H   0  0  0  0  0  0  0  0  0  0  0  0
    3.2299   13.6348   -5.6734 H   0  0  0  0  0  0  0  0  0  0  0  0
    0.3116   12.2364   -2.9741 H   0  0  0  0  0  0  0  0  0  0  0  0
   -0.4658   12.7241   -4.5183 H   0  0  0  0  0  0  0  0  0  0  0  0
    0.8274   11.4774   -4.5183 H   0  0  0  0  0  0  0  0  0  0  0  0
    3.2752   14.3240   -3.3536 H   0  0  0  0  0  0  0  0  0  0  0  0
    3.4214   11.7621   -3.5922 H   0  0  0  0  0  0  0  0  0  0  0  0
    4.1924   12.6305   -2.1638 H   0  0  0  0  0  0  0  0  0  0  0  0
    2.9306   10.3820   -1.6189 H   0  0  0  0  0  0  0  0  0  0  0  0
    0.0405   13.1928   -1.4050 H   0  0  0  0  0  0  0  0  0  0  0  0
    1.7760   13.6891    1.0924 H   0  0  0  0  0  0  0  0  0  0  0  0
    0.3016   14.6256    0.5827 H   0  0  0  0  0  0  0  0  0  0  0  0
   -0.1868   13.0309    2.4100 H   0  0  0  0  0  0  0  0  0  0  0  0
   -1.0899   12.6609    0.8888 H   0  0  0  0  0  0  0  0  0  0  0  0
   -0.2723   10.6052    1.8182 H   0  0  0  0  0  0  0  0  0  0  0  0
    2.3130   11.8760    1.6700 H   0  0  0  0  0  0  0  0  0  0  0  0
   -1.3927   10.2801   -0.0204 H   0  0  0  0  0  0  0  0  0  0  0  0
   -0.8808   11.3040   -1.4047 H   0  0  0  0  0  0  0  0  0  0  0  0
   -0.5148    9.5454   -1.4047 H   0  0  0  0  0  0  0  0  0  0  0  0
    1.5783    9.1074    1.1322 H   0  0  0  0  0  0  0  0  0  0  0  0
    0.8437    8.5730   -0.4174 H   0  0  0  0  0  0  0  0  0  0  0  0
    2.4384    9.3999   -0.4174 H   0  0  0  0  0  0  0  0  0  0  0  0
    2.7655   14.7052    0.2166 H   0  0  0  0  0  0  0  0  0  0  0  0
    3.9362   14.2738   -1.0756 H   0  0  0  0  0  0  0  0  0  0  0  0
    3.1540   15.8909   -1.0756 H   0  0  0  0  0  0  0  0  0  0  0  0
    0.2194   15.6247   -1.2351 H   0  0  0  0  0  0  0  0  0  0  0  0
    1.6117   16.3265   -2.2371 H   0  0  0  0  0  0  0  0  0  0  0  0
   -0.7074   14.6413   -3.2200 H   0  0  0  0  0  0  0  0  0  0  0  0
   -0.3333   16.3710   -3.5878 H   0  0  0  0  0  0  0  0  0  0  0  0
    2.4042   16.4331   -3.7983 H   0  0  0  0  0  0  0  0  0  0  0  0
    2.8922   15.6459   -5.3374 H   0  0  0  0  0  0  0  0  0  0  0  0
    1.6014   16.8950   -5.3374 H   0  0  0  0  0  0  0  0  0  0  0  0
  1  2  1  0
  2  3  1  0
  3  4  1  0
  4  5  1  0
  5  6  1  0
  6  7  1  0
  7  8  1  0
  7  9  1  0
  2 10  1  0
 10 11  1  0
 11 12  1  0
 12 13  1  0
 13 14  1  1
 13 15  1  0
 15 16  1  0
 16 17  1  0
 17 18  2  0
 18 19  1  0
 19 20  1  0
 20 21  1  0
 21 22  1  0
 22 23  1  0
 22 24  1  0
 24 25  1  0
 24 26  1  0
 19 27  1  0
 27 28  1  1
 27 29  1  0
 29 30  1  0
 30 31  1  0
 31 32  1  6
  7  5  1  0
 31 10  1  0
 31 13  1  0
 27 15  1  0
 24 18  1  0
  1 33  1  0
  1 34  1  0
  1 35  1  0
  2 36  1  6
  3 37  1  0
  3 38  1  0
  4 39  1  0
  4 40  1  0
  5 41  1  1
  8 42  1  0
  8 43  1  0
  8 44  1  0
  9 45  1  0
  9 46  1  0
  9 47  1  0
 10 48  1  1
 11 49  1  0
 11 50  1  0
 12 51  1  0
 12 52  1  0
 14 53  1  0
 14 54  1  0
 14 55  1  0
 15 56  1  6
 16 57  1  0
 16 58  1  0
 17 59  1  0
 19 60  1  6
 20 61  1  0
 20 62  1  0
 21 63  1  0
 21 64  1  0
 22 65  1  1
 23 66  1  0
 25 67  1  0
 25 68  1  0
 25 69  1  0
 26 70  1  0
 26 71  1  0
 26 72  1  0
 28 73  1  0
 28 74  1  0
 28 75  1  0
 29 76  1  0
 29 77  1  0
 30 78  1  0
 30 79  1  0
 32 80  1  0
 32 81  1  0
 32 82  1  0
M  END
>  <meeko>  (12) 
{"is_sidechain": [false], "intermolecular_energy": 2.731, "internal_energy": -0.839}

$$$$
EPH_relaxed_0001_pdb2pqr_Repair_360_r2_0001_out
     RDKit          3D

 82 86  0  0  0  0  0  0  0  0999 V2000
    1.7520   18.5590   -2.3050 C   0  0  0  0  0  0  0  0  0  0  0  0
    2.2150   17.4140   -3.2090 C   0  0  2  0  0  0  0  0  0  0  0  0
    1.2440   17.1710   -4.3820 C   0  0  0  0  0  0  0  0  0  0  0  0
    1.6220   15.9710   -5.2550 C   0  0  0  0  0  0  0  0  0  0  0  0
    0.6170   15.7390   -6.3430 C   0  0  2  0  0  0  0  0  0  0  0  0
    0.6660   14.4350   -6.9350 O   0  0  0  0  0  0  0  0  0  0  0  0
    0.9920   15.5350   -7.7990 C   0  0  0  0  0  0  0  0  0  0  0  0
    2.4200   15.5550   -8.2470 C   0  0  0  0  0  0  0  0  0  0  0  0
   -0.0400   15.8040   -8.8480 C   0  0  0  0  0  0  0  0  0  0  0  0
    2.3740   16.1380   -2.3910 C   0  0  1  0  0  0  0  0  0  0  0  0
    3.0270   16.3930   -1.0060 C   0  0  0  0  0  0  0  0  0  0  0  0
    2.3730   15.3980   -0.0140 C   0  0  0  0  0  0  0  0  0  0  0  0
    1.6180   14.3900   -0.9120 C   0  0  1  0  0  0  0  0  0  0  0  0
    2.7120   13.3860   -1.3940 C   0  0  0  0  0  0  0  0  0  0  0  0
    0.4060   13.6520   -0.2560 C   0  0  2  0  0  0  0  0  0  0  0  0
    0.7590   12.7590    0.9460 C   0  0  0  0  0  0  0  0  0  0  0  0
    1.0810   11.3400    0.6130 C   0  0  0  0  0  0  0  0  0  0  0  0
    0.8140   10.7310   -0.5570 C   0  0  0  0  0  0  0  0  0  0  0  0
    0.0350   11.4560   -1.6620 C   0  0  1  0  0  0  0  0  0  0  0  0
   -1.0640   10.5150   -2.2230 C   0  0  0  0  0  0  0  0  0  0  0  0
   -0.5050    9.1740   -2.6870 C   0  0  0  0  0  0  0  0  0  0  0  0
    0.2120    8.4570   -1.5450 C   0  0  2  0  0  0  0  0  0  0  0  0
   -0.7520    8.0940   -0.5520 O   0  0  0  0  0  0  0  0  0  0  0  0
    1.3350    9.3120   -0.8950 C   0  0  0  0  0  0  0  0  0  0  0  0
    2.5200    9.4520   -1.8820 C   0  0  0  0  0  0  0  0  0  0  0  0
    1.8810    8.5310    0.3310 C   0  0  0  0  0  0  0  0  0  0  0  0
   -0.5260   12.8940   -1.2860 C   0  0  1  0  0  0  0  0  0  0  0  0
   -1.9230   12.7590   -0.6060 C   0  0  0  0  0  0  0  0  0  0  0  0
   -0.7530   13.7190   -2.6070 C   0  0  0  0  0  0  0  0  0  0  0  0
    0.4490   14.5230   -3.1400 C   0  0  0  0  0  0  0  0  0  0  0  0
    1.0840   15.3610   -2.0270 C   0  0  2  0  0  0  0  0  0  0  0  0
    0.0140   16.3960   -1.5370 C   0  0  0  0  0  0  0  0  0  0  0  0
    1.8707   18.2654   -1.2516 H   0  0  0  0  0  0  0  0  0  0  0  0
    2.3589   19.4539   -2.5069 H   0  0  0  0  0  0  0  0  0  0  0  0
    0.6936   18.7805   -2.5069 H   0  0  0  0  0  0  0  0  0  0  0  0
    3.1854   17.7032   -3.6388 H   0  0  0  0  0  0  0  0  0  0  0  0
    0.2386   16.9982   -3.9706 H   0  0  0  0  0  0  0  0  0  0  0  0
    1.2867   18.0626   -5.0249 H   0  0  0  0  0  0  0  0  0  0  0  0
    2.6051   16.1579   -5.7116 H   0  0  0  0  0  0  0  0  0  0  0  0
    1.6483   15.0763   -4.6157 H   0  0  0  0  0  0  0  0  0  0  0  0
   -0.1027   16.4118   -5.8537 H   0  0  0  0  0  0  0  0  0  0  0  0
    3.0802   15.5642   -7.3672 H   0  0  0  0  0  0  0  0  0  0  0  0
    2.6272   14.6597   -8.8515 H   0  0  0  0  0  0  0  0  0  0  0  0
    2.6021   16.4558   -8.8515 H   0  0  0  0  0  0  0  0  0  0  0  0
   -0.9967   16.0534   -8.3657 H   0  0  0  0  0  0  0  0  0  0  0  0
    0.2855   16.6473   -9.4748 H   0  0  0  0  0  0  0  0  0  0  0  0
   -0.1676   14.9091   -9.4748 H   0  0  0  0  0  0  0  0  0  0  0  0
    2.9846   15.5467   -3.0892 H   0  0  0  0  0  0  0  0  0  0  0  0
    4.1114   16.2165   -1.0601 H   0  0  0  0  0  0  0  0  0  0  0  0
    2.8730   17.4328   -0.6819 H   0  0  0  0  0  0  0  0  0  0  0  0
    3.1406   14.8856    0.5845 H   0  0  0  0  0  0  0  0  0  0  0  0
    1.7053   15.9007    0.7012 H   0  0  0  0  0  0  0  0  0  0  0  0
    3.2049   12.9337   -0.5208 H   0  0  0  0  0  0  0  0  0  0  0  0
    2.2437   12.5967   -2.0004 H   0  0  0  0  0  0  0  0  0  0  0  0
    3.4583   13.9202   -2.0004 H   0  0  0  0  0  0  0  0  0  0  0  0
   -0.1837   14.4851    0.1542 H   0  0  0  0  0  0  0  0  0  0  0  0
    1.6335   13.1969    1.4496 H   0  0  0  0  0  0  0  0  0  0  0  0
   -0.1419   12.7269    1.5763 H   0  0  0  0  0  0  0  0  0  0  0  0
    1.5788   10.7412    1.3899 H   0  0  0  0  0  0  0  0  0  0  0  0
    0.7674   11.6860   -2.4498 H   0  0  0  0  0  0  0  0  0  0  0  0
   -1.8085   10.3327   -1.4340 H   0  0  0  0  0  0  0  0  0  0  0  0
   -1.5130   11.0098   -3.0968 H   0  0  0  0  0  0  0  0  0  0  0  0
   -1.3323    8.5435   -3.0448 H   0  0  0  0  0  0  0  0  0  0  0  0
    0.2177    9.3559   -3.4961 H   0  0  0  0  0  0  0  0  0  0  0  0
    0.7006    7.5671   -1.9685 H   0  0  0  0  0  0  0  0  0  0  0  0
   -1.5960    8.5090   -0.7950 H   0  0  0  0  0  0  0  0  0  0  0  0
    3.4570    9.5627   -1.3166 H   0  0  0  0  0  0  0  0  0  0  0  0
    2.5777    8.5544   -2.5153 H   0  0  0  0  0  0  0  0  0  0  0  0
    2.3670   10.3383   -2.5153 H   0  0  0  0  0  0  0  0  0  0  0  0
    1.5408    9.0177    1.2569 H   0  0  0  0  0  0  0  0  0  0  0  0
    1.5084    7.4964    0.3023 H   0  0  0  0  0  0  0  0  0  0  0  0
    2.9806    8.5256    0.3023 H   0  0  0  0  0  0  0  0  0  0  0  0
   -1.8013   12.7708    0.4872 H   0  0  0  0  0  0  0  0  0  0  0  0
   -2.5629   13.5995   -0.9128 H   0  0  0  0  0  0  0  0  0  0  0  0
   -2.3901   11.8115   -0.9128 H   0  0  0  0  0  0  0  0  0  0  0  0
   -1.0550   13.0115   -3.3933 H   0  0  0  0  0  0  0  0  0  0  0  0
   -1.5113   14.4728   -2.3486 H   0  0  0  0  0  0  0  0  0  0  0  0
    1.2003   13.8254   -3.5386 H   0  0  0  0  0  0  0  0  0  0  0  0
    0.0951   15.2005   -3.9310 H   0  0  0  0  0  0  0  0  0  0  0  0
   -0.0033   16.4127   -0.4373 H   0  0  0  0  0  0  0  0  0  0  0  0
    0.2716   17.3964   -1.9149 H   0  0  0  0  0  0  0  0  0  0  0  0
   -0.9773   16.1053   -1.9149 H   0  0  0  0  0  0  0  0  0  0  0  0
  1  2  1  0
  2  3  1  0
  3  4  1  0
  4  5  1  0
  5  6  1  0
  6  7  1  0
  7  8  1  0
  7  9  1  0
  2 10  1  0
 10 11  1  0
 11 12  1  0
 12 13  1  0
 13 14  1  6
 13 15  1  0
 15 16  1  0
 16 17  1  0
 17 18  2  0
 18 19  1  0
 19 20  1  0
 20 21  1  0
 21 22  1  0
 22 23  1  0
 22 24  1  0
 24 25  1  0
 24 26  1  0
 19 27  1  0
 27 28  1  1
 27 29  1  0
 29 30  1  0
 30 31  1  0
 31 32  1  1
  7  5  1  0
 31 10  1  0
 31 13  1  0
 27 15  1  0
 24 18  1  0
  1 33  1  0
  1 34  1  0
  1 35  1  0
  2 36  1  6
  3 37  1  0
  3 38  1  0
  4 39  1  0
  4 40  1  0
  5 41  1  6
  8 42  1  0
  8 43  1  0
  8 44  1  0
  9 45  1  0
  9 46  1  0
  9 47  1  0
 10 48  1  6
 11 49  1  0
 11 50  1  0
 12 51  1  0
 12 52  1  0
 14 53  1  0
 14 54  1  0
 14 55  1  0
 15 56  1  1
 16 57  1  0
 16 58  1  0
 17 59  1  0
 19 60  1  6
 20 61  1  0
 20 62  1  0
 21 63  1  0
 21 64  1  0
 22 65  1  6
 23 66  1  0
 25 67  1  0
 25 68  1  0
 25 69  1  0
 26 70  1  0
 26 71  1  0
 26 72  1  0
 28 73  1  0
 28 74  1  0
 28 75  1  0
 29 76  1  0
 29 77  1  0
 30 78  1  0
 30 79  1  0
 32 80  1  0
 32 81  1  0
 32 82  1  0
M  END
>  <meeko>  (13) 
{"is_sidechain": [false], "intermolecular_energy": 2.731, "internal_energy": -0.839}

$$$$
EPH_relaxed_0001_pdb2pqr_Repair_360_r2_0001_out
     RDKit          3D

 82 86  0  0  0  0  0  0  0  0999 V2000
    4.0280   11.3800   -5.4870 C   0  0  0  0  0  0  0  0  0  0  0  0
    2.8850   12.2710   -5.9800 C   0  0  2  0  0  0  0  0  0  0  0  0
    3.3890   13.4200   -6.8760 C   0  0  0  0  0  0  0  0  0  0  0  0
    2.3000   14.4270   -7.2560 C   0  0  0  0  0  0  0  0  0  0  0  0
    2.5020   14.9660   -8.6400 C   0  0  2  0  0  0  0  0  0  0  0  0
    2.3980   16.3910   -8.7490 O   0  0  0  0  0  0  0  0  0  0  0  0
    1.4020   15.6280   -9.4490 C   0  0  0  0  0  0  0  0  0  0  0  0
    0.0180   15.7850   -8.9020 C   0  0  0  0  0  0  0  0  0  0  0  0
    1.5410   15.6780  -10.9390 C   0  0  0  0  0  0  0  0  0  0  0  0
    2.1170   12.8370   -4.7900 C   0  0  1  0  0  0  0  0  0  0  0  0
    0.8740   13.6600   -5.2190 C   0  0  0  0  0  0  0  0  0  0  0  0
   -0.2160   13.4170   -4.1430 C   0  0  0  0  0  0  0  0  0  0  0  0
    0.5350   12.7400   -2.9730 C   0  0  1  0  0  0  0  0  0  0  0  0
    1.2150   13.9130   -2.2000 C   0  0  0  0  0  0  0  0  0  0  0  0
   -0.3270   11.8460   -2.0230 C   0  0  2  0  0  0  0  0  0  0  0  0
   -1.4390   12.5880   -1.2600 C   0  0  0  0  0  0  0  0  0  0  0  0
   -1.0430   13.1330    0.0720 C   0  0  0  0  0  0  0  0  0  0  0  0
    0.0620   12.7920    0.7600 C   0  0  0  0  0  0  0  0  0  0  0  0
    1.0020   11.6930    0.2470 C   0  0  1  0  0  0  0  0  0  0  0  0
    1.3570   10.7310    1.4110 C   0  0  0  0  0  0  0  0  0  0  0  0
    1.9240   11.4640    2.6230 C   0  0  0  0  0  0  0  0  0  0  0  0
    0.9370   12.5080    3.1400 C   0  0  2  0  0  0  0  0  0  0  0  0
   -0.2130   11.8360    3.6620 O   0  0  0  0  0  0  0  0  0  0  0  0
    0.4980   13.5270    2.0510 C   0  0  0  0  0  0  0  0  0  0  0  0
    1.6850   14.4600    1.7030 C   0  0  0  0  0  0  0  0  0  0  0  0
   -0.6020   14.4350    2.6640 C   0  0  0  0  0  0  0  0  0  0  0  0
    0.5200   10.9220   -1.0570 C   0  0  1  0  0  0  0  0  0  0  0  0
   -0.4030    9.7300   -0.6590 C   0  0  0  0  0  0  0  0  0  0  0  0
    1.7720   10.2940   -1.7750 C   0  0  0  0  0  0  0  0  0  0  0  0
    2.5110   11.1870   -2.7900 C   0  0  0  0  0  0  0  0  0  0  0  0
    1.5280   11.8240   -3.7770 C   0  0  2  0  0  0  0  0  0  0  0  0
    0.8440   10.6680   -4.5850 C   0  0  0  0  0  0  0  0  0  0  0  0
    4.0384   11.3719   -4.3871 H   0  0  0  0  0  0  0  0  0  0  0  0
    3.8813   10.3556   -5.8598 H   0  0  0  0  0  0  0  0  0  0  0  0
    4.9857   11.7723   -5.8598 H   0  0  0  0  0  0  0  0  0  0  0  0
    2.2173   11.6452   -6.5904 H   0  0  0  0  0  0  0  0  0  0  0  0
    4.1853   13.9558   -6.3386 H   0  0  0  0  0  0  0  0  0  0  0  0
    3.7468   12.9651   -7.8114 H   0  0  0  0  0  0  0  0  0  0  0  0
    1.3207   13.9285   -7.2070 H   0  0  0  0  0  0  0  0  0  0  0  0
    2.3496   15.2687   -6.5495 H   0  0  0  0  0  0  0  0  0  0  0  0
    3.2071   14.1558   -8.8776 H   0  0  0  0  0  0  0  0  0  0  0  0
    0.0556   15.7807   -7.8027 H   0  0  0  0  0  0  0  0  0  0  0  0
   -0.4082   16.7373   -9.2506 H   0  0  0  0  0  0  0  0  0  0  0  0
   -0.6107   14.9524   -9.2506 H   0  0  0  0  0  0  0  0  0  0  0  0
    2.5462   16.0396  -11.2016 H   0  0  0  0  0  0  0  0  0  0  0  0
    1.3935   14.6705  -11.3550 H   0  0  0  0  0  0  0  0  0  0  0  0
    0.7855   16.3607  -11.3550 H   0  0  0  0  0  0  0  0  0  0  0  0
    2.9182   13.4214   -4.3140 H   0  0  0  0  0  0  0  0  0  0  0  0
    1.1262   14.7296   -5.2680 H   0  0  0  0  0  0  0  0  0  0  0  0
    0.5215   13.3533   -6.2148 H   0  0  0  0  0  0  0  0  0  0  0  0
   -0.6613   14.3693   -3.8194 H   0  0  0  0  0  0  0  0  0  0  0  0
   -1.0442   12.7991   -4.5203 H   0  0  0  0  0  0  0  0  0  0  0  0
    1.1171   13.7442   -1.1174 H   0  0  0  0  0  0  0  0  0  0  0  0
    2.2806   13.9603   -2.4689 H   0  0  0  0  0  0  0  0  0  0  0  0
    0.7265   14.8612   -2.4689 H   0  0  0  0  0  0  0  0  0  0  0  0
   -0.8432   11.1797   -2.7298 H   0  0  0  0  0  0  0  0  0  0  0  0
   -1.7774   13.4282   -1.8842 H   0  0  0  0  0  0  0  0  0  0  0  0
   -2.2232   11.8422   -1.0631 H   0  0  0  0  0  0  0  0  0  0  0  0
   -1.7115   13.8768    0.5302 H   0  0  0  0  0  0  0  0  0  0  0  0
    1.9097   12.2069   -0.1024 H   0  0  0  0  0  0  0  0  0  0  0  0
    0.4458   10.1961    1.7168 H   0  0  0  0  0  0  0  0  0  0  0  0
    2.1303   10.0381    1.0477 H   0  0  0  0  0  0  0  0  0  0  0  0
    2.1284   10.7353    3.4213 H   0  0  0  0  0  0  0  0  0  0  0  0
    2.8505   11.9751    2.3225 H   0  0  0  0  0  0  0  0  0  0  0  0
    1.4481   13.0868    3.9235 H   0  0  0  0  0  0  0  0  0  0  0  0
   -0.0210   10.8830    3.6640 H   0  0  0  0  0  0  0  0  0  0  0  0
    2.1490   14.8247    2.6312 H   0  0  0  0  0  0  0  0  0  0  0  0
    2.4294   13.9027    1.1153 H   0  0  0  0  0  0  0  0  0  0  0  0
    1.3193   15.3150    1.1153 H   0  0  0  0  0  0  0  0  0  0  0  0
   -0.5460   14.3888    3.7616 H   0  0  0  0  0  0  0  0  0  0  0  0
   -0.4479   15.4724    2.3324 H   0  0  0  0  0  0  0  0  0  0  0  0
   -1.5915   14.0871    2.3324 H   0  0  0  0  0  0  0  0  0  0  0  0
   -0.4580    9.6590    0.4373 H   0  0  0  0  0  0  0  0  0  0  0  0
   -1.4112    9.8949   -1.0668 H   0  0  0  0  0  0  0  0  0  0  0  0
    0.0090    8.7952   -1.0668 H   0  0  0  0  0  0  0  0  0  0  0  0
    2.4939   10.0081   -0.9958 H   0  0  0  0  0  0  0  0  0  0  0  0
    1.3746    9.4552   -2.3653 H   0  0  0  0  0  0  0  0  0  0  0  0
    3.0437   11.9826   -2.2485 H   0  0  0  0  0  0  0  0  0  0  0  0
    3.2205   10.5639   -3.3542 H   0  0  0  0  0  0  0  0  0  0  0  0
    0.4118    9.9375   -3.8853 H   0  0  0  0  0  0  0  0  0  0  0  0
    0.0471   11.0850   -5.2184 H   0  0  0  0  0  0  0  0  0  0  0  0
    1.5931   10.1703   -5.2184 H   0  0  0  0  0  0  0  0  0  0  0  0
  1  2  1  0
  2  3  1  0
  3  4  1  0
  4  5  1  0
  5  6  1  0
  6  7  1  0
  7  8  1  0
  7  9  1  0
  2 10  1  0
 10 11  1  0
 11 12  1  0
 12 13  1  0
 13 14  1  1
 13 15  1  0
 15 16  1  0
 16 17  1  0
 17 18  2  0
 18 19  1  0
 19 20  1  0
 20 21  1  0
 21 22  1  0
 22 23  1  0
 22 24  1  0
 24 25  1  0
 24 26  1  0
 19 27  1  0
 27 28  1  1
 27 29  1  0
 29 30  1  0
 30 31  1  0
 31 32  1  6
  7  5  1  0
 31 10  1  0
 31 13  1  0
 27 15  1  0
 24 18  1  0
  1 33  1  0
  1 34  1  0
  1 35  1  0
  2 36  1  6
  3 37  1  0
  3 38  1  0
  4 39  1  0
  4 40  1  0
  5 41  1  6
  8 42  1  0
  8 43  1  0
  8 44  1  0
  9 45  1  0
  9 46  1  0
  9 47  1  0
 10 48  1  1
 11 49  1  0
 11 50  1  0
 12 51  1  0
 12 52  1  0
 14 53  1  0
 14 54  1  0
 14 55  1  0
 15 56  1  6
 16 57  1  0
 16 58  1  0
 17 59  1  0
 19 60  1  6
 20 61  1  0
 20 62  1  0
 21 63  1  0
 21 64  1  0
 22 65  1  1
 23 66  1  0
 25 67  1  0
 25 68  1  0
 25 69  1  0
 26 70  1  0
 26 71  1  0
 26 72  1  0
 28 73  1  0
 28 74  1  0
 28 75  1  0
 29 76  1  0
 29 77  1  0
 30 78  1  0
 30 79  1  0
 32 80  1  0
 32 81  1  0
 32 82  1  0
M  END
>  <meeko>  (14) 
{"is_sidechain": [false], "intermolecular_energy": 2.731, "internal_energy": -0.839}

$$$$
EPH_relaxed_0001_pdb2pqr_Repair_360_r2_0001_out
     RDKit          3D

 82 86  0  0  0  0  0  0  0  0999 V2000
    1.3960    8.7430   -2.7400 C   0  0  0  0  0  0  0  0  0  0  0  0
   -0.0170    9.0220   -2.2230 C   0  0  2  0  0  0  0  0  0  0  0  0
   -1.0960    8.3160   -3.0680 C   0  0  0  0  0  0  0  0  0  0  0  0
   -2.2870    7.8110   -2.2500 C   0  0  0  0  0  0  0  0  0  0  0  0
   -3.0890    6.7950   -3.0060 C   0  0  2  0  0  0  0  0  0  0  0  0
   -4.2160    7.3280   -3.7130 O   0  0  0  0  0  0  0  0  0  0  0  0
   -4.5120    6.4160   -2.6440 C   0  0  0  0  0  0  0  0  0  0  0  0
   -5.2180    7.0460   -1.4840 C   0  0  0  0  0  0  0  0  0  0  0  0
   -5.0400    5.0940   -3.1090 C   0  0  0  0  0  0  0  0  0  0  0  0
   -0.2750   10.5250   -2.1990 C   0  0  1  0  0  0  0  0  0  0  0  0
   -1.7740   10.8710   -1.9940 C   0  0  0  0  0  0  0  0  0  0  0  0
   -1.8210   12.1660   -1.1440 C   0  0  0  0  0  0  0  0  0  0  0  0
   -0.3710   12.7030   -1.1690 C   0  0  1  0  0  0  0  0  0  0  0  0
   -0.2440   13.4520   -2.5330 C   0  0  0  0  0  0  0  0  0  0  0  0
    0.0500   13.6130    0.0310 C   0  0  2  0  0  0  0  0  0  0  0  0
   -0.7410   14.9260    0.1630 C   0  0  0  0  0  0  0  0  0  0  0  0
   -0.1610   16.0950   -0.5630 C   0  0  0  0  0  0  0  0  0  0  0  0
    1.0900   16.1690   -1.0540 C   0  0  0  0  0  0  0  0  0  0  0  0
    2.0990   15.0380   -0.8130 C   0  0  1  0  0  0  0  0  0  0  0  0
    3.4560   15.6410   -0.3650 C   0  0  0  0  0  0  0  0  0  0  0  0
    3.9790   16.6930   -1.3390 C   0  0  0  0  0  0  0  0  0  0  0  0
    2.9730   17.8290   -1.5070 C   0  0  2  0  0  0  0  0  0  0  0  0
    2.8710   18.5400   -0.2700 O   0  0  0  0  0  0  0  0  0  0  0  0
    1.5650   17.3410   -1.9480 C   0  0  0  0  0  0  0  0  0  0  0  0
    1.6220   16.8420   -3.4130 C   0  0  0  0  0  0  0  0  0  0  0  0
    0.6120   18.5660   -1.9430 C   0  0  0  0  0  0  0  0  0  0  0  0
    1.6090   13.8630    0.1380 C   0  0  1  0  0  0  0  0  0  0  0  0
    1.9000   14.2270    1.6260 C   0  0  0  0  0  0  0  0  0  0  0  0
    2.4460   12.5660   -0.1740 C   0  0  0  0  0  0  0  0  0  0  0  0
    1.9130   11.6470   -1.2890 C   0  0  0  0  0  0  0  0  0  0  0  0
    0.4240   11.3490   -1.0900 C   0  0  2  0  0  0  0  0  0  0  0  0
    0.2680   10.5760    0.2640 C   0  0  0  0  0  0  0  0  0  0  0  0
    2.0783    8.6083   -1.8878 H   0  0  0  0  0  0  0  0  0  0  0  0
    1.3887    7.8290   -3.3519 H   0  0  0  0  0  0  0  0  0  0  0  0
    1.7367    9.5912   -3.3519 H   0  0  0  0  0  0  0  0  0  0  0  0
   -0.0807    8.6171   -1.2022 H   0  0  0  0  0  0  0  0  0  0  0  0
   -1.4681    9.0272   -3.8201 H   0  0  0  0  0  0  0  0  0  0  0  0
   -0.6215    7.4337   -3.5223 H   0  0  0  0  0  0  0  0  0  0  0  0
   -1.9134    7.3519   -1.3228 H   0  0  0  0  0  0  0  0  0  0  0  0
   -2.9400    8.6685   -2.0305 H   0  0  0  0  0  0  0  0  0  0  0  0
   -2.1896    6.1904   -3.1948 H   0  0  0  0  0  0  0  0  0  0  0  0
   -4.7913    6.6652   -0.5443 H   0  0  0  0  0  0  0  0  0  0  0  0
   -5.0927    8.1380   -1.5276 H   0  0  0  0  0  0  0  0  0  0  0  0
   -6.2887    6.7977   -1.5276 H   0  0  0  0  0  0  0  0  0  0  0  0
   -5.2887    4.4713   -2.2370 H   0  0  0  0  0  0  0  0  0  0  0  0
   -5.9436    5.2530   -3.7158 H   0  0  0  0  0  0  0  0  0  0  0  0
   -4.2755    4.5867   -3.7158 H   0  0  0  0  0  0  0  0  0  0  0  0
    0.1332   10.7974   -3.1835 H   0  0  0  0  0  0  0  0  0  0  0  0
   -2.2607   11.0380   -2.9662 H   0  0  0  0  0  0  0  0  0  0  0  0
   -2.3043   10.0488   -1.4913 H   0  0  0  0  0  0  0  0  0  0  0  0
   -2.5132   12.8967   -1.5878 H   0  0  0  0  0  0  0  0  0  0  0  0
   -2.1790   11.9801   -0.1206 H   0  0  0  0  0  0  0  0  0  0  0  0
   -0.0627   14.5212   -2.3487 H   0  0  0  0  0  0  0  0  0  0  0  0
    0.5956   13.0311   -3.1056 H   0  0  0  0  0  0  0  0  0  0  0  0
   -1.1754   13.3314   -3.1056 H   0  0  0  0  0  0  0  0  0  0  0  0
   -0.2360   13.0042    0.9014 H   0  0  0  0  0  0  0  0  0  0  0  0
   -1.7550   14.7527   -0.2266 H   0  0  0  0  0  0  0  0  0  0  0  0
   -0.7188   15.1890    1.2309 H   0  0  0  0  0  0  0  0  0  0  0  0
   -0.8115   16.9700   -0.7089 H   0  0  0  0  0  0  0  0  0  0  0  0
    2.2193   14.5267   -1.7795 H   0  0  0  0  0  0  0  0  0  0  0  0
    3.3254   16.1084    0.6222 H   0  0  0  0  0  0  0  0  0  0  0  0
    4.1902   14.8226   -0.3316 H   0  0  0  0  0  0  0  0  0  0  0  0
    4.9239   17.1030   -0.9528 H   0  0  0  0  0  0  0  0  0  0  0  0
    4.1379   16.2171   -2.3179 H   0  0  0  0  0  0  0  0  0  0  0  0
    3.3435   18.4818   -2.3111 H   0  0  0  0  0  0  0  0  0  0  0  0
    2.5230   19.4260   -0.4680 H   0  0  0  0  0  0  0  0  0  0  0  0
    1.7468   15.7492   -3.4235 H   0  0  0  0  0  0  0  0  0  0  0  0
    0.6875   17.1093   -3.9280 H   0  0  0  0  0  0  0  0  0  0  0  0
    2.4722   17.3131   -3.9280 H   0  0  0  0  0  0  0  0  0  0  0  0
    0.3889   18.8528   -0.9047 H   0  0  0  0  0  0  0  0  0  0  0  0
    1.0947   19.4082   -2.4604 H   0  0  0  0  0  0  0  0  0  0  0  0
   -0.3231   18.3052   -2.4604 H   0  0  0  0  0  0  0  0  0  0  0  0
    1.3504   13.5396    2.2859 H   0  0  0  0  0  0  0  0  0  0  0  0
    2.9789   14.1383    1.8209 H   0  0  0  0  0  0  0  0  0  0  0  0
    1.5759   15.2599    1.8209 H   0  0  0  0  0  0  0  0  0  0  0  0
    3.4589   12.8847   -0.4612 H   0  0  0  0  0  0  0  0  0  0  0  0
    2.3955   11.9630    0.7446 H   0  0  0  0  0  0  0  0  0  0  0  0
    2.0540   12.1420   -2.2612 H   0  0  0  0  0  0  0  0  0  0  0  0
    2.4678   10.6977   -1.2557 H   0  0  0  0  0  0  0  0  0  0  0  0
    0.4088   11.2736    1.1028 H   0  0  0  0  0  0  0  0  0  0  0  0
   -0.7375   10.1336    0.3199 H   0  0  0  0  0  0  0  0  0  0  0  0
    1.0232    9.7782    0.3199 H   0  0  0  0  0  0  0  0  0  0  0  0
  1  2  1  0
  2  3  1  0
  3  4  1  0
  4  5  1  0
  5  6  1  0
  6  7  1  0
  7  8  1  0
  7  9  1  0
  2 10  1  0
 10 11  1  0
 11 12  1  0
 12 13  1  0
 13 14  1  6
 13 15  1  0
 15 16  1  0
 16 17  1  0
 17 18  2  0
 18 19  1  0
 19 20  1  0
 20 21  1  0
 21 22  1  0
 22 23  1  0
 22 24  1  0
 24 25  1  0
 24 26  1  0
 19 27  1  0
 27 28  1  1
 27 29  1  0
 29 30  1  0
 30 31  1  0
 31 32  1  1
  7  5  1  0
 31 10  1  0
 31 13  1  0
 27 15  1  0
 24 18  1  0
  1 33  1  0
  1 34  1  0
  1 35  1  0
  2 36  1  1
  3 37  1  0
  3 38  1  0
  4 39  1  0
  4 40  1  0
  5 41  1  6
  8 42  1  0
  8 43  1  0
  8 44  1  0
  9 45  1  0
  9 46  1  0
  9 47  1  0
 10 48  1  6
 11 49  1  0
 11 50  1  0
 12 51  1  0
 12 52  1  0
 14 53  1  0
 14 54  1  0
 14 55  1  0
 15 56  1  1
 16 57  1  0
 16 58  1  0
 17 59  1  0
 19 60  1  6
 20 61  1  0
 20 62  1  0
 21 63  1  0
 21 64  1  0
 22 65  1  6
 23 66  1  0
 25 67  1  0
 25 68  1  0
 25 69  1  0
 26 70  1  0
 26 71  1  0
 26 72  1  0
 28 73  1  0
 28 74  1  0
 28 75  1  0
 29 76  1  0
 29 77  1  0
 30 78  1  0
 30 79  1  0
 32 80  1  0
 32 81  1  0
 32 82  1  0
M  END
>  <meeko>  (15) 
{"is_sidechain": [false], "intermolecular_energy": 2.731, "internal_energy": -0.839}

$$$$
EPH_relaxed_0001_pdb2pqr_Repair_360_r2_0001_out
     RDKit          3D

 82 86  0  0  0  0  0  0  0  0999 V2000
    0.1520    9.2680   -2.0490 C   0  0  0  0  0  0  0  0  0  0  0  0
    1.1660   10.2430   -2.6530 C   0  0  2  0  0  0  0  0  0  0  0  0
    2.5720    9.6210   -2.7690 C   0  0  0  0  0  0  0  0  0  0  0  0
    3.4610   10.3010   -3.8130 C   0  0  0  0  0  0  0  0  0  0  0  0
    4.8420   10.5530   -3.2860 C   0  0  2  0  0  0  0  0  0  0  0  0
    5.3880   11.8340   -3.6250 O   0  0  0  0  0  0  0  0  0  0  0  0
    6.0640   10.6920   -4.1750 C   0  0  0  0  0  0  0  0  0  0  0  0
    5.9620   10.5830   -5.6640 C   0  0  0  0  0  0  0  0  0  0  0  0
    7.4140   10.4450   -3.5780 C   0  0  0  0  0  0  0  0  0  0  0  0
    1.2260   11.5150   -1.8150 C   0  0  1  0  0  0  0  0  0  0  0  0
    2.3860   11.4970   -0.7840 C   0  0  0  0  0  0  0  0  0  0  0  0
    2.9060   12.9530   -0.6710 C   0  0  0  0  0  0  0  0  0  0  0  0
    1.8270   13.8090   -1.3770 C   0  0  1  0  0  0  0  0  0  0  0  0
    0.7020   13.9940   -0.3110 C   0  0  0  0  0  0  0  0  0  0  0  0
    2.3040   15.1800   -1.9580 C   0  0  2  0  0  0  0  0  0  0  0  0
    2.8310   16.1820   -0.9160 C   0  0  0  0  0  0  0  0  0  0  0  0
    1.8050   17.1020   -0.3400 C   0  0  0  0  0  0  0  0  0  0  0  0
    0.5760   17.3180   -0.8460 C   0  0  0  0  0  0  0  0  0  0  0  0
    0.1460   16.6760   -2.1720 C   0  0  1  0  0  0  0  0  0  0  0  0
   -0.5360   17.7430   -3.0670 C   0  0  0  0  0  0  0  0  0  0  0  0
   -1.6890   18.4500   -2.3590 C   0  0  0  0  0  0  0  0  0  0  0  0
   -1.2100   19.1240   -1.0770 C   0  0  2  0  0  0  0  0  0  0  0  0
   -0.3230   20.1930   -1.4220 O   0  0  0  0  0  0  0  0  0  0  0  0
   -0.4970   18.1480   -0.1000 C   0  0  0  0  0  0  0  0  0  0  0  0
   -1.5330   17.1700    0.5070 C   0  0  0  0  0  0  0  0  0  0  0  0
    0.0600   18.9810    1.0860 C   0  0  0  0  0  0  0  0  0  0  0  0
    1.2710   15.8600   -2.9440 C   0  0  1  0  0  0  0  0  0  0  0  0
    2.0930   16.8210   -3.8570 C   0  0  0  0  0  0  0  0  0  0  0  0
    0.5830   14.8180   -3.9030 C   0  0  0  0  0  0  0  0  0  0  0  0
    0.2450   13.4390   -3.3020 C   0  0  0  0  0  0  0  0  0  0  0  0
    1.4520   12.8510   -2.5660 C   0  0  2  0  0  0  0  0  0  0  0  0
    2.5930   12.6330   -3.6170 C   0  0  0  0  0  0  0  0  0  0  0  0
    0.2041    9.3181   -0.9514 H   0  0  0  0  0  0  0  0  0  0  0  0
   -0.8609    9.5401   -2.3808 H   0  0  0  0  0  0  0  0  0  0  0  0
    0.3842    8.2453   -2.3808 H   0  0  0  0  0  0  0  0  0  0  0  0
    0.8274   10.4843   -3.6714 H   0  0  0  0  0  0  0  0  0  0  0  0
    3.0669    9.6960   -1.7895 H   0  0  0  0  0  0  0  0  0  0  0  0
    2.4367    8.5782   -3.0919 H   0  0  0  0  0  0  0  0  0  0  0  0
    3.5303    9.6526   -4.6989 H   0  0  0  0  0  0  0  0  0  0  0  0
    3.0093   11.2708   -4.0687 H   0  0  0  0  0  0  0  0  0  0  0  0
    4.6414    9.9350   -2.3984 H   0  0  0  0  0  0  0  0  0  0  0  0
    5.2319    9.8028   -5.9254 H   0  0  0  0  0  0  0  0  0  0  0  0
    5.6338   11.5467   -6.0806 H   0  0  0  0  0  0  0  0  0  0  0  0
    6.9453   10.3193   -6.0806 H   0  0  0  0  0  0  0  0  0  0  0  0
    7.3378   10.4589   -2.4807 H   0  0  0  0  0  0  0  0  0  0  0  0
    7.7866    9.4638   -3.9072 H   0  0  0  0  0  0  0  0  0  0  0  0
    8.1099   11.2307   -3.9072 H   0  0  0  0  0  0  0  0  0  0  0  0
    0.2169   11.4957   -1.3775 H   0  0  0  0  0  0  0  0  0  0  0  0
    2.0193   11.1488    0.1929 H   0  0  0  0  0  0  0  0  0  0  0  0
    3.1877   10.8148   -1.1031 H   0  0  0  0  0  0  0  0  0  0  0  0
    3.0072   13.2484    0.3837 H   0  0  0  0  0  0  0  0  0  0  0  0
    3.9001   13.0773   -1.1253 H   0  0  0  0  0  0  0  0  0  0  0  0
    1.1366   13.9225    0.6970 H   0  0  0  0  0  0  0  0  0  0  0  0
    0.2340   14.9812   -0.4393 H   0  0  0  0  0  0  0  0  0  0  0  0
   -0.0575   13.2087   -0.4393 H   0  0  0  0  0  0  0  0  0  0  0  0
    3.1770   14.8903   -2.5612 H   0  0  0  0  0  0  0  0  0  0  0  0
    3.2768   15.6097   -0.0892 H   0  0  0  0  0  0  0  0  0  0  0  0
    3.5507   16.8227   -1.4466 H   0  0  0  0  0  0  0  0  0  0  0  0
    2.0763   17.6493    0.5748 H   0  0  0  0  0  0  0  0  0  0  0  0
   -0.5789   15.8915   -1.9091 H   0  0  0  0  0  0  0  0  0  0  0  0
    0.2146   18.4938   -3.3549 H   0  0  0  0  0  0  0  0  0  0  0  0
   -0.9498   17.2269   -3.9458 H   0  0  0  0  0  0  0  0  0  0  0  0
   -2.1107   19.2123   -3.0306 H   0  0  0  0  0  0  0  0  0  0  0  0
   -2.4526   17.7023   -2.0985 H   0  0  0  0  0  0  0  0  0  0  0  0
   -2.0995   19.4997   -0.5502 H   0  0  0  0  0  0  0  0  0  0  0  0
    0.3450   20.2600   -0.7180 H   0  0  0  0  0  0  0  0  0  0  0  0
   -1.4827   17.2175    1.6048 H   0  0  0  0  0  0  0  0  0  0  0  0
   -2.5426   17.4520    0.1737 H   0  0  0  0  0  0  0  0  0  0  0  0
   -1.3096   16.1458    0.1737 H   0  0  0  0  0  0  0  0  0  0  0  0
   -0.2488   18.5192    2.0354 H   0  0  0  0  0  0  0  0  0  0  0  0
    1.1583   19.0077    1.0314 H   0  0  0  0  0  0  0  0  0  0  0  0
   -0.3349   20.0062    1.0314 H   0  0  0  0  0  0  0  0  0  0  0  0
    2.6808   17.5082   -3.2308 H   0  0  0  0  0  0  0  0  0  0  0  0
    2.7715   16.2324   -4.4921 H   0  0  0  0  0  0  0  0  0  0  0  0
    1.4064   17.4001   -4.4921 H   0  0  0  0  0  0  0  0  0  0  0  0
   -0.3564   15.2646   -4.2608 H   0  0  0  0  0  0  0  0  0  0  0  0
    1.3255   14.6157   -4.6890 H   0  0  0  0  0  0  0  0  0  0  0  0
   -0.5893   13.5499   -2.5937 H   0  0  0  0  0  0  0  0  0  0  0  0
   -0.0324   12.7583   -4.1203 H   0  0  0  0  0  0  0  0  0  0  0  0
    3.5435   12.4514   -3.0940 H   0  0  0  0  0  0  0  0  0  0  0  0
    2.3498   11.7651   -4.2475 H   0  0  0  0  0  0  0  0  0  0  0  0
    2.6869   13.5295   -4.2475 H   0  0  0  0  0  0  0  0  0  0  0  0
  1  2  1  0
  2  3  1  0
  3  4  1  0
  4  5  1  0
  5  6  1  0
  6  7  1  0
  7  8  1  0
  7  9  1  0
  2 10  1  0
 10 11  1  0
 11 12  1  0
 12 13  1  0
 13 14  1  1
 13 15  1  0
 15 16  1  0
 16 17  1  0
 17 18  2  0
 18 19  1  0
 19 20  1  0
 20 21  1  0
 21 22  1  0
 22 23  1  0
 22 24  1  0
 24 25  1  0
 24 26  1  0
 19 27  1  0
 27 28  1  6
 27 29  1  0
 29 30  1  0
 30 31  1  0
 31 32  1  6
  7  5  1  0
 31 10  1  0
 31 13  1  0
 27 15  1  0
 24 18  1  0
  1 33  1  0
  1 34  1  0
  1 35  1  0
  2 36  1  6
  3 37  1  0
  3 38  1  0
  4 39  1  0
  4 40  1  0
  5 41  1  1
  8 42  1  0
  8 43  1  0
  8 44  1  0
  9 45  1  0
  9 46  1  0
  9 47  1  0
 10 48  1  1
 11 49  1  0
 11 50  1  0
 12 51  1  0
 12 52  1  0
 14 53  1  0
 14 54  1  0
 14 55  1  0
 15 56  1  6
 16 57  1  0
 16 58  1  0
 17 59  1  0
 19 60  1  1
 20 61  1  0
 20 62  1  0
 21 63  1  0
 21 64  1  0
 22 65  1  1
 23 66  1  0
 25 67  1  0
 25 68  1  0
 25 69  1  0
 26 70  1  0
 26 71  1  0
 26 72  1  0
 28 73  1  0
 28 74  1  0
 28 75  1  0
 29 76  1  0
 29 77  1  0
 30 78  1  0
 30 79  1  0
 32 80  1  0
 32 81  1  0
 32 82  1  0
M  END
>  <meeko>  (16) 
{"is_sidechain": [false], "intermolecular_energy": 2.731, "internal_energy": -0.839}

$$$$
EPH_relaxed_0001_pdb2pqr_Repair_360_r2_0001_out
     RDKit          3D

 82 86  0  0  0  0  0  0  0  0999 V2000
   -0.1220   16.1420   -6.5620 C   0  0  0  0  0  0  0  0  0  0  0  0
    1.3720   16.0500   -6.2400 C   0  0  2  0  0  0  0  0  0  0  0  0
    2.1090   15.0750   -7.1790 C   0  0  0  0  0  0  0  0  0  0  0  0
    1.4640   14.9450   -8.5610 C   0  0  0  0  0  0  0  0  0  0  0  0
    2.3800   15.4220   -9.6480 C   0  0  2  0  0  0  0  0  0  0  0  0
    1.8640   16.5040  -10.4330 O   0  0  0  0  0  0  0  0  0  0  0  0
    2.0770   15.2640  -11.1260 C   0  0  0  0  0  0  0  0  0  0  0  0
    0.8190   14.6060  -11.5990 C   0  0  0  0  0  0  0  0  0  0  0  0
    3.2160   15.3040  -12.0970 C   0  0  0  0  0  0  0  0  0  0  0  0
    1.5660   15.6240   -4.7890 C   0  0  1  0  0  0  0  0  0  0  0  0
    1.6250   16.8300   -3.8150 C   0  0  0  0  0  0  0  0  0  0  0  0
    0.9510   16.3730   -2.4960 C   0  0  0  0  0  0  0  0  0  0  0  0
    0.8280   14.8370   -2.6330 C   0  0  1  0  0  0  0  0  0  0  0  0
    2.2370   14.2860   -2.2510 C   0  0  0  0  0  0  0  0  0  0  0  0
   -0.3040   14.1570   -1.7950 C   0  0  2  0  0  0  0  0  0  0  0  0
   -0.1610   14.3000   -0.2690 C   0  0  0  0  0  0  0  0  0  0  0  0
    0.6050   13.2100    0.4040 C   0  0  0  0  0  0  0  0  0  0  0  0
    0.9140   12.0190   -0.1410 C   0  0  0  0  0  0  0  0  0  0  0  0
    0.3950   11.6310   -1.5320 C   0  0  1  0  0  0  0  0  0  0  0  0
   -0.1720   10.1880   -1.4890 C   0  0  0  0  0  0  0  0  0  0  0  0
    0.8340    9.1800   -0.9400 C   0  0  0  0  0  0  0  0  0  0  0  0
    1.2810    9.5680    0.4670 C   0  0  2  0  0  0  0  0  0  0  0  0
    0.1660    9.4480    1.3560 O   0  0  0  0  0  0  0  0  0  0  0  0
    1.8620   11.0080    0.5500 C   0  0  0  0  0  0  0  0  0  0  0  0
    3.2330   11.0580   -0.1680 C   0  0  0  0  0  0  0  0  0  0  0  0
    2.1420   11.3240    2.0440 C   0  0  0  0  0  0  0  0  0  0  0  0
   -0.6070   12.6610   -2.2100 C   0  0  1  0  0  0  0  0  0  0  0  0
   -2.0680   12.3600   -1.7540 C   0  0  0  0  0  0  0  0  0  0  0  0
   -0.5780   12.4550   -3.7710 C   0  0  0  0  0  0  0  0  0  0  0  0
    0.4850   13.2460   -4.5560 C   0  0  0  0  0  0  0  0  0  0  0  0
    0.4720   14.7250   -4.1600 C   0  0  2  0  0  0  0  0  0  0  0  0
   -0.9270   15.3130   -4.5520 C   0  0  0  0  0  0  0  0  0  0  0  0
   -0.6975   16.1774   -5.6252 H   0  0  0  0  0  0  0  0  0  0  0  0
   -0.3157   17.0538   -7.1461 H   0  0  0  0  0  0  0  0  0  0  0  0
   -0.4261   15.2609   -7.1461 H   0  0  0  0  0  0  0  0  0  0  0  0
    1.8062   17.0487   -6.3949 H   0  0  0  0  0  0  0  0  0  0  0  0
    3.1411   15.4323   -7.3098 H   0  0  0  0  0  0  0  0  0  0  0  0
    2.0649   14.0814   -6.7092 H   0  0  0  0  0  0  0  0  0  0  0  0
    1.2171   13.8883   -8.7411 H   0  0  0  0  0  0  0  0  0  0  0  0
    0.5588   15.5698   -8.5769 H   0  0  0  0  0  0  0  0  0  0  0  0
    3.2651   15.1704   -9.0453 H   0  0  0  0  0  0  0  0  0  0  0  0
    0.2203   14.2928  -10.7310 H   0  0  0  0  0  0  0  0  0  0  0  0
    0.2397   15.3166  -12.2069 H   0  0  0  0  0  0  0  0  0  0  0  0
    1.0723   13.7249  -12.2069 H   0  0  0  0  0  0  0  0  0  0  0  0
    4.1671   15.3374  -11.5454 H   0  0  0  0  0  0  0  0  0  0  0  0
    3.1904   14.4044  -12.7295 H   0  0  0  0  0  0  0  0  0  0  0  0
    3.1273   16.1996  -12.7295 H   0  0  0  0  0  0  0  0  0  0  0  0
    2.5059   15.0608   -4.8860 H   0  0  0  0  0  0  0  0  0  0  0  0
    2.6709   17.1144   -3.6272 H   0  0  0  0  0  0  0  0  0  0  0  0
    1.1108   17.7053   -4.2386 H   0  0  0  0  0  0  0  0  0  0  0  0
    1.5748   16.6369   -1.6293 H   0  0  0  0  0  0  0  0  0  0  0  0
   -0.0237   16.8571   -2.3359 H   0  0  0  0  0  0  0  0  0  0  0  0
    2.3316   14.2490   -1.1557 H   0  0  0  0  0  0  0  0  0  0  0  0
    2.3592   13.2738   -2.6640 H   0  0  0  0  0  0  0  0  0  0  0  0
    3.0134   14.9468   -2.6640 H   0  0  0  0  0  0  0  0  0  0  0  0
   -1.1896   14.7493   -2.0686 H   0  0  0  0  0  0  0  0  0  0  0  0
    0.3503   15.2520   -0.0632 H   0  0  0  0  0  0  0  0  0  0  0  0
   -1.1816   14.2513    0.1384 H   0  0  0  0  0  0  0  0  0  0  0  0
    0.9460   13.3961    1.4331 H   0  0  0  0  0  0  0  0  0  0  0  0
    1.2655   11.6697   -2.2034 H   0  0  0  0  0  0  0  0  0  0  0  0
   -1.0657   10.1793   -0.8477 H   0  0  0  0  0  0  0  0  0  0  0  0
   -0.4114    9.8924   -2.5211 H   0  0  0  0  0  0  0  0  0  0  0  0
    0.3659    8.1851   -0.9077 H   0  0  0  0  0  0  0  0  0  0  0  0
    1.7152    9.1687   -1.5982 H   0  0  0  0  0  0  0  0  0  0  0  0
    2.0932    8.8841    0.7545 H   0  0  0  0  0  0  0  0  0  0  0  0
   -0.5490   10.0080    1.0080 H   0  0  0  0  0  0  0  0  0  0  0  0
    4.0382   11.0874    0.5808 H   0  0  0  0  0  0  0  0  0  0  0  0
    3.3501   10.1635   -0.7975 H   0  0  0  0  0  0  0  0  0  0  0  0
    3.2846   11.9586   -0.7975 H   0  0  0  0  0  0  0  0  0  0  0  0
    1.5463   10.6517    2.6789 H   0  0  0  0  0  0  0  0  0  0  0  0
    3.2113   11.1765    2.2558 H   0  0  0  0  0  0  0  0  0  0  0  0
    1.8668   12.3678    2.2558 H   0  0  0  0  0  0  0  0  0  0  0  0
   -2.1145   12.3504   -0.6550 H   0  0  0  0  0  0  0  0  0  0  0  0
   -2.7411   13.1383   -2.1427 H   0  0  0  0  0  0  0  0  0  0  0  0
   -2.3787   11.3790   -2.1427 H   0  0  0  0  0  0  0  0  0  0  0  0
   -0.4058   11.3856   -3.9624 H   0  0  0  0  0  0  0  0  0  0  0  0
   -1.5449   12.8376   -4.1299 H   0  0  0  0  0  0  0  0  0  0  0  0
    1.4782   12.8248   -4.3412 H   0  0  0  0  0  0  0  0  0  0  0  0
    0.2575   13.1686   -5.6294 H   0  0  0  0  0  0  0  0  0  0  0  0
   -1.4934   15.5511   -3.6396 H   0  0  0  0  0  0  0  0  0  0  0  0
   -0.7867   16.2283   -5.1458 H   0  0  0  0  0  0  0  0  0  0  0  0
   -1.4827   14.5723   -5.1458 H   0  0  0  0  0  0  0  0  0  0  0  0
  1  2  1  0
  2  3  1  0
  3  4  1  0
  4  5  1  0
  5  6  1  0
  6  7  1  0
  7  8  1  0
  7  9  1  0
  2 10  1  0
 10 11  1  0
 11 12  1  0
 12 13  1  0
 13 14  1  6
 13 15  1  0
 15 16  1  0
 16 17  1  0
 17 18  2  0
 18 19  1  0
 19 20  1  0
 20 21  1  0
 21 22  1  0
 22 23  1  0
 22 24  1  0
 24 25  1  0
 24 26  1  0
 19 27  1  0
 27 28  1  1
 27 29  1  0
 29 30  1  0
 30 31  1  0
 31 32  1  1
  7  5  1  0
 31 10  1  0
 31 13  1  0
 27 15  1  0
 24 18  1  0
  1 33  1  0
  1 34  1  0
  1 35  1  0
  2 36  1  1
  3 37  1  0
  3 38  1  0
  4 39  1  0
  4 40  1  0
  5 41  1  1
  8 42  1  0
  8 43  1  0
  8 44  1  0
  9 45  1  0
  9 46  1  0
  9 47  1  0
 10 48  1  6
 11 49  1  0
 11 50  1  0
 12 51  1  0
 12 52  1  0
 14 53  1  0
 14 54  1  0
 14 55  1  0
 15 56  1  6
 16 57  1  0
 16 58  1  0
 17 59  1  0
 19 60  1  6
 20 61  1  0
 20 62  1  0
 21 63  1  0
 21 64  1  0
 22 65  1  1
 23 66  1  0
 25 67  1  0
 25 68  1  0
 25 69  1  0
 26 70  1  0
 26 71  1  0
 26 72  1  0
 28 73  1  0
 28 74  1  0
 28 75  1  0
 29 76  1  0
 29 77  1  0
 30 78  1  0
 30 79  1  0
 32 80  1  0
 32 81  1  0
 32 82  1  0
M  END
>  <meeko>  (17) 
{"is_sidechain": [false], "intermolecular_energy": 2.731, "internal_energy": -0.839}

$$$$
EPH_relaxed_0001_pdb2pqr_Repair_360_r2_0001_out
     RDKit          3D

 82 86  0  0  0  0  0  0  0  0999 V2000
    0.3980    8.5960   -1.9370 C   0  0  0  0  0  0  0  0  0  0  0  0
    1.2670    9.2910   -0.8840 C   0  0  2  0  0  0  0  0  0  0  0  0
    0.4970    9.5470    0.4270 C   0  0  0  0  0  0  0  0  0  0  0  0
    1.2750   10.3880    1.4430 C   0  0  0  0  0  0  0  0  0  0  0  0
    0.8110   11.8130    1.4550 C   0  0  2  0  0  0  0  0  0  0  0  0
    1.8450   12.7770    1.6930 O   0  0  0  0  0  0  0  0  0  0  0  0
    0.8200   12.6850    2.6970 C   0  0  0  0  0  0  0  0  0  0  0  0
    1.3040   12.1630    4.0130 C   0  0  0  0  0  0  0  0  0  0  0  0
   -0.0880   13.8740    2.7430 C   0  0  0  0  0  0  0  0  0  0  0  0
    1.8030   10.6060   -1.4390 C   0  0  1  0  0  0  0  0  0  0  0  0
    2.7050   10.4040   -2.6860 C   0  0  0  0  0  0  0  0  0  0  0  0
    2.4560   11.6170   -3.6190 C   0  0  0  0  0  0  0  0  0  0  0  0
    1.6830   12.6310   -2.7420 C   0  0  1  0  0  0  0  0  0  0  0  0
    2.7810   13.3480   -1.8950 C   0  0  0  0  0  0  0  0  0  0  0  0
    0.7810   13.6560   -3.5040 C   0  0  2  0  0  0  0  0  0  0  0  0
    1.5310   14.6080   -4.4520 C   0  0  0  0  0  0  0  0  0  0  0  0
    1.9860   15.8910   -3.8380 C   0  0  0  0  0  0  0  0  0  0  0  0
    1.5580   16.3910   -2.6640 C   0  0  0  0  0  0  0  0  0  0  0  0
    0.4460   15.6950   -1.8690 C   0  0  1  0  0  0  0  0  0  0  0  0
   -0.5920   16.7480   -1.4000 C   0  0  0  0  0  0  0  0  0  0  0  0
    0.0480   17.8950   -0.6250 C   0  0  0  0  0  0  0  0  0  0  0  0
    1.1080   18.5990   -1.4690 C   0  0  2  0  0  0  0  0  0  0  0  0
    0.4630   19.2540   -2.5650 O   0  0  0  0  0  0  0  0  0  0  0  0
    2.2030   17.6360   -2.0060 C   0  0  0  0  0  0  0  0  0  0  0  0
    3.0970   17.1590   -0.8350 C   0  0  0  0  0  0  0  0  0  0  0  0
    3.1270   18.4460   -2.9550 C   0  0  0  0  0  0  0  0  0  0  0  0
   -0.2310   14.4430   -2.5760 C   0  0  1  0  0  0  0  0  0  0  0  0
   -1.3990   14.9170   -3.4940 C   0  0  0  0  0  0  0  0  0  0  0  0
   -0.8780   13.5190   -1.4770 C   0  0  0  0  0  0  0  0  0  0  0  0
    0.0330   12.4470   -0.8480 C   0  0  0  0  0  0  0  0  0  0  0  0
    0.7660   11.6470   -1.9280 C   0  0  2  0  0  0  0  0  0  0  0  0
   -0.3120   10.8970   -2.7830 C   0  0  0  0  0  0  0  0  0  0  0  0
   -0.3667    7.9844   -1.4357 H   0  0  0  0  0  0  0  0  0  0  0  0
   -0.0926    9.3537   -2.5657 H   0  0  0  0  0  0  0  0  0  0  0  0
    1.0293    7.9509   -2.5657 H   0  0  0  0  0  0  0  0  0  0  0  0
    2.1044    8.6178   -0.6485 H   0  0  0  0  0  0  0  0  0  0  0  0
   -0.4378   10.0732    0.1837 H   0  0  0  0  0  0  0  0  0  0  0  0
    0.3175    8.5662    0.8915 H   0  0  0  0  0  0  0  0  0  0  0  0
    1.1320    9.9582    2.4454 H   0  0  0  0  0  0  0  0  0  0  0  0
    2.3369   10.3758    1.1564 H   0  0  0  0  0  0  0  0  0  0  0  0
    0.0270   11.5890    0.7167 H   0  0  0  0  0  0  0  0  0  0  0  0
    0.8024   12.7040    4.8289 H   0  0  0  0  0  0  0  0  0  0  0  0
    1.0741   11.0900    4.0888 H   0  0  0  0  0  0  0  0  0  0  0  0
    2.3913   12.3113    4.0888 H   0  0  0  0  0  0  0  0  0  0  0  0
   -0.2911   14.1399    3.7909 H   0  0  0  0  0  0  0  0  0  0  0  0
    0.3937   14.7231    2.2360 H   0  0  0  0  0  0  0  0  0  0  0  0
   -1.0339   13.6328    2.2360 H   0  0  0  0  0  0  0  0  0  0  0  0
    2.3230   10.9846   -0.5467 H   0  0  0  0  0  0  0  0  0  0  0  0
    3.7628   10.3673   -2.3865 H   0  0  0  0  0  0  0  0  0  0  0  0
    2.4684    9.4584   -3.1957 H   0  0  0  0  0  0  0  0  0  0  0  0
    3.4094   12.0464   -3.9606 H   0  0  0  0  0  0  0  0  0  0  0  0
    1.8984   11.3388   -4.5255 H   0  0  0  0  0  0  0  0  0  0  0  0
    2.5678   13.2088   -0.8249 H   0  0  0  0  0  0  0  0  0  0  0  0
    3.7655   12.9182   -2.1316 H   0  0  0  0  0  0  0  0  0  0  0  0
    2.7834   14.4222   -2.1316 H   0  0  0  0  0  0  0  0  0  0  0  0
    0.1786   13.0031   -4.1528 H   0  0  0  0  0  0  0  0  0  0  0  0
    2.4177   14.0799   -4.8326 H   0  0  0  0  0  0  0  0  0  0  0  0
    0.8122   14.8843   -5.2375 H   0  0  0  0  0  0  0  0  0  0  0  0
    2.7342   16.4769   -4.3920 H   0  0  0  0  0  0  0  0  0  0  0  0
    0.9354   15.2393   -0.9956 H   0  0  0  0  0  0  0  0  0  0  0  0
   -1.1003   17.1602   -2.2841 H   0  0  0  0  0  0  0  0  0  0  0  0
   -1.2989   16.2427   -0.7255 H   0  0  0  0  0  0  0  0  0  0  0  0
   -0.7308   18.6203   -0.3468 H   0  0  0  0  0  0  0  0  0  0  0  0
    0.5306   17.4850    0.2745 H   0  0  0  0  0  0  0  0  0  0  0  0
    1.6203   19.3235   -0.8188 H   0  0  0  0  0  0  0  0  0  0  0  0
   -0.4960   19.1370   -2.4550 H   0  0  0  0  0  0  0  0  0  0  0  0
    2.6168   17.4152    0.1209 H   0  0  0  0  0  0  0  0  0  0  0  0
    3.2318   16.0691   -0.8970 H   0  0  0  0  0  0  0  0  0  0  0  0
    4.0774   17.6539   -0.8970 H   0  0  0  0  0  0  0  0  0  0  0  0
    3.8219   19.0552   -2.3583 H   0  0  0  0  0  0  0  0  0  0  0  0
    3.6989   17.7530   -3.5895 H   0  0  0  0  0  0  0  0  0  0  0  0
    2.5148   19.1037   -3.5895 H   0  0  0  0  0  0  0  0  0  0  0  0
   -2.2394   15.2580   -2.8715 H   0  0  0  0  0  0  0  0  0  0  0  0
   -1.0530   15.7459   -4.1290 H   0  0  0  0  0  0  0  0  0  0  0  0
   -1.7285   14.0814   -4.1290 H   0  0  0  0  0  0  0  0  0  0  0  0
   -1.2374   14.1686   -0.6653 H   0  0  0  0  0  0  0  0  0  0  0  0
   -1.6659   12.9571   -2.0000 H   0  0  0  0  0  0  0  0  0  0  0  0
    0.7734   12.9392   -0.2003 H   0  0  0  0  0  0  0  0  0  0  0  0
   -0.5917   11.7557   -0.2633 H   0  0  0  0  0  0  0  0  0  0  0  0
   -1.0287   10.3983   -2.1139 H   0  0  0  0  0  0  0  0  0  0  0  0
   -0.8449   11.6204   -3.4176 H   0  0  0  0  0  0  0  0  0  0  0  0
    0.1809   10.1458   -3.4176 H   0  0  0  0  0  0  0  0  0  0  0  0
  1  2  1  0
  2  3  1  0
  3  4  1  0
  4  5  1  0
  5  6  1  0
  6  7  1  0
  7  8  1  0
  7  9  1  0
  2 10  1  0
 10 11  1  0
 11 12  1  0
 12 13  1  0
 13 14  1  1
 13 15  1  0
 15 16  1  0
 16 17  1  0
 17 18  2  0
 18 19  1  0
 19 20  1  0
 20 21  1  0
 21 22  1  0
 22 23  1  0
 22 24  1  0
 24 25  1  0
 24 26  1  0
 19 27  1  0
 27 28  1  6
 27 29  1  0
 29 30  1  0
 30 31  1  0
 31 32  1  6
  7  5  1  0
 31 10  1  0
 31 13  1  0
 27 15  1  0
 24 18  1  0
  1 33  1  0
  1 34  1  0
  1 35  1  0
  2 36  1  1
  3 37  1  0
  3 38  1  0
  4 39  1  0
  4 40  1  0
  5 41  1  6
  8 42  1  0
  8 43  1  0
  8 44  1  0
  9 45  1  0
  9 46  1  0
  9 47  1  0
 10 48  1  1
 11 49  1  0
 11 50  1  0
 12 51  1  0
 12 52  1  0
 14 53  1  0
 14 54  1  0
 14 55  1  0
 15 56  1  6
 16 57  1  0
 16 58  1  0
 17 59  1  0
 19 60  1  1
 20 61  1  0
 20 62  1  0
 21 63  1  0
 21 64  1  0
 22 65  1  1
 23 66  1  0
 25 67  1  0
 25 68  1  0
 25 69  1  0
 26 70  1  0
 26 71  1  0
 26 72  1  0
 28 73  1  0
 28 74  1  0
 28 75  1  0
 29 76  1  0
 29 77  1  0
 30 78  1  0
 30 79  1  0
 32 80  1  0
 32 81  1  0
 32 82  1  0
M  END
>  <meeko>  (18) 
{"is_sidechain": [false], "intermolecular_energy": 2.731, "internal_energy": -0.839}

$$$$
EPH_relaxed_0001_pdb2pqr_Repair_360_r2_0001_out
     RDKit          3D

 82 86  0  0  0  0  0  0  0  0999 V2000
  -13.8330    9.7010    1.4400 C   0  0  0  0  0  0  0  0  0  0  0  0
  -13.2970    9.3360    0.0530 C   0  0  2  0  0  0  0  0  0  0  0  0
  -14.3760    8.6820   -0.8330 C   0  0  0  0  0  0  0  0  0  0  0  0
  -15.2880    9.6890   -1.5390 C   0  0  0  0  0  0  0  0  0  0  0  0
  -14.6960   10.1600   -2.8330 C   0  0  2  0  0  0  0  0  0  0  0  0
  -13.5260   10.9760   -2.6950 O   0  0  0  0  0  0  0  0  0  0  0  0
  -14.6800   11.6150   -3.2640 C   0  0  0  0  0  0  0  0  0  0  0  0
  -15.2660   12.6910   -2.4050 C   0  0  0  0  0  0  0  0  0  0  0  0
  -14.5380   11.9270   -4.7210 C   0  0  0  0  0  0  0  0  0  0  0  0
  -12.0980    8.4050    0.1870 C   0  0  1  0  0  0  0  0  0  0  0  0
  -12.4370    7.1030    0.9600 C   0  0  0  0  0  0  0  0  0  0  0  0
  -11.5950    5.9700    0.3190 C   0  0  0  0  0  0  0  0  0  0  0  0
  -10.5640    6.7050   -0.5690 C   0  0  1  0  0  0  0  0  0  0  0  0
   -9.4380    7.1570    0.4130 C   0  0  0  0  0  0  0  0  0  0  0  0
   -9.9860    5.8940   -1.7750 C   0  0  2  0  0  0  0  0  0  0  0  0
   -9.1900    4.6350   -1.3920 C   0  0  0  0  0  0  0  0  0  0  0  0
   -7.7250    4.8420   -1.1930 C   0  0  0  0  0  0  0  0  0  0  0  0
   -7.0270    5.9230   -1.5890 C   0  0  0  0  0  0  0  0  0  0  0  0
   -7.6980    7.0390   -2.4000 C   0  0  1  0  0  0  0  0  0  0  0  0
   -6.7930    7.4220   -3.6010 C   0  0  0  0  0  0  0  0  0  0  0  0
   -5.3740    7.7840   -3.1710 C   0  0  0  0  0  0  0  0  0  0  0  0
   -4.7200    6.6280   -2.4190 C   0  0  2  0  0  0  0  0  0  0  0  0
   -4.5280    5.5380   -3.3260 O   0  0  0  0  0  0  0  0  0  0  0  0
   -5.5470    6.1490   -1.1930 C   0  0  0  0  0  0  0  0  0  0  0  0
   -5.5010    7.2260   -0.0810 C   0  0  0  0  0  0  0  0  0  0  0  0
   -4.8500    4.8910   -0.6090 C   0  0  0  0  0  0  0  0  0  0  0  0
   -9.2040    6.7730   -2.8320 C   0  0  1  0  0  0  0  0  0  0  0  0
   -9.2410    5.9880   -4.1790 C   0  0  0  0  0  0  0  0  0  0  0  0
   -9.9120    8.1530   -3.1040 C   0  0  0  0  0  0  0  0  0  0  0  0
  -10.5670    8.8480   -1.8950 C   0  0  0  0  0  0  0  0  0  0  0  0
  -11.4600    7.8740   -1.1200 C   0  0  2  0  0  0  0  0  0  0  0  0
  -12.6140    7.4190   -2.0770 C   0  0  0  0  0  0  0  0  0  0  0  0
  -13.1848    9.2596    2.2114 H   0  0  0  0  0  0  0  0  0  0  0  0
  -13.8441   10.7952    1.5525 H   0  0  0  0  0  0  0  0  0  0  0  0
  -14.8552    9.3104    1.5525 H   0  0  0  0  0  0  0  0  0  0  0  0
  -12.9884   10.2704   -0.4386 H   0  0  0  0  0  0  0  0  0  0  0  0
  -13.8737    8.0725   -1.5986 H   0  0  0  0  0  0  0  0  0  0  0  0
  -15.0149    8.0807   -0.1695 H   0  0  0  0  0  0  0  0  0  0  0  0
  -16.2570    9.2102   -1.7435 H   0  0  0  0  0  0  0  0  0  0  0  0
  -15.4109   10.5613   -0.8802 H   0  0  0  0  0  0  0  0  0  0  0  0
  -15.0226    9.2422   -3.3438 H   0  0  0  0  0  0  0  0  0  0  0  0
  -15.1248   12.4318   -1.3453 H   0  0  0  0  0  0  0  0  0  0  0  0
  -14.7632   13.6457   -2.6191 H   0  0  0  0  0  0  0  0  0  0  0  0
  -16.3407   12.7865   -2.6191 H   0  0  0  0  0  0  0  0  0  0  0  0
  -14.0850   12.9223   -4.8404 H   0  0  0  0  0  0  0  0  0  0  0  0
  -13.8948   11.1720   -5.1967 H   0  0  0  0  0  0  0  0  0  0  0  0
  -15.5298   11.9161   -5.1967 H   0  0  0  0  0  0  0  0  0  0  0  0
  -11.3969    9.0800    0.6998 H   0  0  0  0  0  0  0  0  0  0  0  0
  -12.1755    7.2144    2.0226 H   0  0  0  0  0  0  0  0  0  0  0  0
  -13.5121    6.8775    0.9015 H   0  0  0  0  0  0  0  0  0  0  0  0
  -11.0873    5.3773    1.0942 H   0  0  0  0  0  0  0  0  0  0  0  0
  -12.2133    5.2649   -0.2559 H   0  0  0  0  0  0  0  0  0  0  0  0
   -9.7790    7.0201    1.4498 H   0  0  0  0  0  0  0  0  0  0  0  0
   -8.5362    6.5512    0.2406 H   0  0  0  0  0  0  0  0  0  0  0  0
   -9.2053    8.2182    0.2406 H   0  0  0  0  0  0  0  0  0  0  0  0
  -10.8969    5.5315   -2.2738 H   0  0  0  0  0  0  0  0  0  0  0  0
   -9.6080    4.2411   -0.4539 H   0  0  0  0  0  0  0  0  0  0  0  0
   -9.2866    3.9439   -2.2423 H   0  0  0  0  0  0  0  0  0  0  0  0
   -7.1689    4.0439   -0.6794 H   0  0  0  0  0  0  0  0  0  0  0  0
   -7.7944    7.8955   -1.7165 H   0  0  0  0  0  0  0  0  0  0  0  0
   -6.7450    6.5683   -4.2930 H   0  0  0  0  0  0  0  0  0  0  0  0
   -7.2329    8.3080   -4.0820 H   0  0  0  0  0  0  0  0  0  0  0  0
   -4.7756    8.0168   -4.0641 H   0  0  0  0  0  0  0  0  0  0  0  0
   -5.4216    8.6558   -2.5018 H   0  0  0  0  0  0  0  0  0  0  0  0
   -3.7590    6.9914   -2.0261 H   0  0  0  0  0  0  0  0  0  0  0  0
   -4.7290    4.7170   -2.8460 H   0  0  0  0  0  0  0  0  0  0  0  0
   -5.5219    6.7370    0.9041 H   0  0  0  0  0  0  0  0  0  0  0  0
   -4.5769    7.8146   -0.1787 H   0  0  0  0  0  0  0  0  0  0  0  0
   -6.3715    7.8913   -0.1787 H   0  0  0  0  0  0  0  0  0  0  0  0
   -4.8745    4.9351    0.4898 H   0  0  0  0  0  0  0  0  0  0  0  0
   -5.3764    3.9879   -0.9515 H   0  0  0  0  0  0  0  0  0  0  0  0
   -3.8052    4.8585   -0.9515 H   0  0  0  0  0  0  0  0  0  0  0  0
   -9.2919    4.9086   -3.9731 H   0  0  0  0  0  0  0  0  0  0  0  0
  -10.1258    6.2931   -4.7570 H   0  0  0  0  0  0  0  0  0  0  0  0
   -8.3315    6.2085   -4.7570 H   0  0  0  0  0  0  0  0  0  0  0  0
   -9.1564    8.8396   -3.5134 H   0  0  0  0  0  0  0  0  0  0  0  0
  -10.7423    7.9208   -3.7871 H   0  0  0  0  0  0  0  0  0  0  0  0
   -9.7791    9.2241   -1.2258 H   0  0  0  0  0  0  0  0  0  0  0  0
  -11.1889    9.6777   -2.2620 H   0  0  0  0  0  0  0  0  0  0  0  0
  -13.4734    7.0802   -1.4798 H   0  0  0  0  0  0  0  0  0  0  0  0
  -12.9189    8.2642   -2.7115 H   0  0  0  0  0  0  0  0  0  0  0  0
  -12.2600    6.5932   -2.7115 H   0  0  0  0  0  0  0  0  0  0  0  0
  1  2  1  0
  2  3  1  0
  3  4  1  0
  4  5  1  0
  5  6  1  0
  6  7  1  0
  7  8  1  0
  7  9  1  0
  2 10  1  0
 10 11  1  0
 11 12  1  0
 12 13  1  0
 13 14  1  1
 13 15  1  0
 15 16  1  0
 16 17  1  0
 17 18  2  0
 18 19  1  0
 19 20  1  0
 20 21  1  0
 21 22  1  0
 22 23  1  0
 22 24  1  0
 24 25  1  0
 24 26  1  0
 19 27  1  0
 27 28  1  6
 27 29  1  0
 29 30  1  0
 30 31  1  0
 31 32  1  6
  7  5  1  0
 31 10  1  0
 31 13  1  0
 27 15  1  0
 24 18  1  0
  1 33  1  0
  1 34  1  0
  1 35  1  0
  2 36  1  6
  3 37  1  0
  3 38  1  0
  4 39  1  0
  4 40  1  0
  5 41  1  6
  8 42  1  0
  8 43  1  0
  8 44  1  0
  9 45  1  0
  9 46  1  0
  9 47  1  0
 10 48  1  1
 11 49  1  0
 11 50  1  0
 12 51  1  0
 12 52  1  0
 14 53  1  0
 14 54  1  0
 14 55  1  0
 15 56  1  6
 16 57  1  0
 16 58  1  0
 17 59  1  0
 19 60  1  1
 20 61  1  0
 20 62  1  0
 21 63  1  0
 21 64  1  0
 22 65  1  1
 23 66  1  0
 25 67  1  0
 25 68  1  0
 25 69  1  0
 26 70  1  0
 26 71  1  0
 26 72  1  0
 28 73  1  0
 28 74  1  0
 28 75  1  0
 29 76  1  0
 29 77  1  0
 30 78  1  0
 30 79  1  0
 32 80  1  0
 32 81  1  0
 32 82  1  0
M  END
>  <meeko>  (19) 
{"is_sidechain": [false], "intermolecular_energy": 2.731, "internal_energy": -0.839}

$$$$
EPH_relaxed_0001_pdb2pqr_Repair_360_r2_0001_out
     RDKit          3D

 82 86  0  0  0  0  0  0  0  0999 V2000
  -15.2510    8.9310    0.8900 C   0  0  0  0  0  0  0  0  0  0  0  0
  -14.4960    9.1750   -0.4190 C   0  0  2  0  0  0  0  0  0  0  0  0
  -14.9550    8.2210   -1.5400 C   0  0  0  0  0  0  0  0  0  0  0  0
  -14.8270    8.8160   -2.9450 C   0  0  0  0  0  0  0  0  0  0  0  0
  -15.2880   10.2420   -2.9870 C   0  0  2  0  0  0  0  0  0  0  0  0
  -14.8070   10.9930   -4.1090 O   0  0  0  0  0  0  0  0  0  0  0  0
  -14.3560   11.4270   -2.8160 C   0  0  0  0  0  0  0  0  0  0  0  0
  -12.8880   11.2400   -2.5890 C   0  0  0  0  0  0  0  0  0  0  0  0
  -14.9360   12.7370   -2.3830 C   0  0  0  0  0  0  0  0  0  0  0  0
  -12.9960    9.0260   -0.1900 C   0  0  1  0  0  0  0  0  0  0  0  0
  -12.6060    9.1420    1.3070 C   0  0  0  0  0  0  0  0  0  0  0  0
  -11.4180    8.1730    1.5370 C   0  0  0  0  0  0  0  0  0  0  0  0
  -10.9510    7.7840    0.1150 C   0  0  1  0  0  0  0  0  0  0  0  0
  -10.0540    8.9730   -0.3520 C   0  0  0  0  0  0  0  0  0  0  0  0
  -10.2100    6.4140   -0.0190 C   0  0  2  0  0  0  0  0  0  0  0  0
   -8.8850    6.3110    0.7570 C   0  0  0  0  0  0  0  0  0  0  0  0
   -7.6680    6.7250   -0.0020 C   0  0  0  0  0  0  0  0  0  0  0  0
   -7.5960    6.8910   -1.3360 C   0  0  0  0  0  0  0  0  0  0  0  0
   -8.7930    6.5610   -2.2360 C   0  0  1  0  0  0  0  0  0  0  0  0
   -8.3110    5.7300   -3.4540 C   0  0  0  0  0  0  0  0  0  0  0  0
   -7.1790    6.4120   -4.2160 C   0  0  0  0  0  0  0  0  0  0  0  0
   -5.9850    6.6710   -3.3010 C   0  0  2  0  0  0  0  0  0  0  0  0
   -5.4190    5.4150   -2.9140 O   0  0  0  0  0  0  0  0  0  0  0  0
   -6.3510    7.4920   -2.0340 C   0  0  0  0  0  0  0  0  0  0  0  0
   -6.6760    8.9520   -2.4350 C   0  0  0  0  0  0  0  0  0  0  0  0
   -5.0910    7.5610   -1.1290 C   0  0  0  0  0  0  0  0  0  0  0  0
  -10.0470    5.9080   -1.5100 C   0  0  1  0  0  0  0  0  0  0  0  0
   -9.8740    4.3600   -1.4380 C   0  0  0  0  0  0  0  0  0  0  0  0
  -11.3360    6.1710   -2.3750 C   0  0  0  0  0  0  0  0  0  0  0  0
  -12.0930    7.4870   -2.1120 C   0  0  0  0  0  0  0  0  0  0  0  0
  -12.3410    7.6870   -0.6140 C   0  0  2  0  0  0  0  0  0  0  0  0
  -13.2600    6.5170   -0.1210 C   0  0  0  0  0  0  0  0  0  0  0  0
  -14.5879    9.1453    1.7411 H   0  0  0  0  0  0  0  0  0  0  0  0
  -16.1300    9.5908    0.9348 H   0  0  0  0  0  0  0  0  0  0  0  0
  -15.5776    7.8816    0.9348 H   0  0  0  0  0  0  0  0  0  0  0  0
  -14.7220   10.2010   -0.7450 H   0  0  0  0  0  0  0  0  0  0  0  0
  -14.3424    7.3086   -1.4921 H   0  0  0  0  0  0  0  0  0  0  0  0
  -16.0232    8.0185   -1.3726 H   0  0  0  0  0  0  0  0  0  0  0  0
  -13.7727    8.7728   -3.2558 H   0  0  0  0  0  0  0  0  0  0  0  0
  -15.4626    8.2298   -3.6250 H   0  0  0  0  0  0  0  0  0  0  0  0
  -16.2383    9.9746   -2.5017 H   0  0  0  0  0  0  0  0  0  0  0  0
  -12.6845   11.2141   -1.5083 H   0  0  0  0  0  0  0  0  0  0  0  0
  -12.5640   10.2933   -3.0460 H   0  0  0  0  0  0  0  0  0  0  0  0
  -12.3370   12.0752   -3.0460 H   0  0  0  0  0  0  0  0  0  0  0  0
  -14.9566   12.7836   -1.2842 H   0  0  0  0  0  0  0  0  0  0  0  0
  -14.3176   13.5587   -2.7733 H   0  0  0  0  0  0  0  0  0  0  0  0
  -15.9601   12.8315   -2.7733 H   0  0  0  0  0  0  0  0  0  0  0  0
  -12.6301    9.8429   -0.8293 H   0  0  0  0  0  0  0  0  0  0  0  0
  -12.3039   10.1736    1.5407 H   0  0  0  0  0  0  0  0  0  0  0  0
  -13.4556    8.8860    1.9571 H   0  0  0  0  0  0  0  0  0  0  0  0
  -10.6087    8.6746    2.0879 H   0  0  0  0  0  0  0  0  0  0  0  0
  -11.7047    7.2963    2.1363 H   0  0  0  0  0  0  0  0  0  0  0  0
   -9.6564    9.5000    0.5279 H   0  0  0  0  0  0  0  0  0  0  0  0
   -9.2197    8.5875   -0.9565 H   0  0  0  0  0  0  0  0  0  0  0  0
  -10.6537    9.6694   -0.9565 H   0  0  0  0  0  0  0  0  0  0  0  0
  -10.9036    5.7207    0.4793 H   0  0  0  0  0  0  0  0  0  0  0  0
   -8.9630    6.9498    1.6491 H   0  0  0  0  0  0  0  0  0  0  0  0
   -8.7505    5.2443    0.9896 H   0  0  0  0  0  0  0  0  0  0  0  0
   -6.7520    6.9102    0.5782 H   0  0  0  0  0  0  0  0  0  0  0  0
   -9.1924    7.5273   -2.5776 H   0  0  0  0  0  0  0  0  0  0  0  0
   -7.9561    4.7524   -3.0957 H   0  0  0  0  0  0  0  0  0  0  0  0
   -9.1614    5.6239   -4.1436 H   0  0  0  0  0  0  0  0  0  0  0  0
   -6.8624    5.7640   -5.0466 H   0  0  0  0  0  0  0  0  0  0  0  0
   -7.5441    7.3764   -4.5988 H   0  0  0  0  0  0  0  0  0  0  0  0
   -5.2608    7.2749   -3.8673 H   0  0  0  0  0  0  0  0  0  0  0  0
   -4.5050    5.3900   -3.2420 H   0  0  0  0  0  0  0  0  0  0  0  0
   -6.8113    9.5598   -1.5282 H   0  0  0  0  0  0  0  0  0  0  0  0
   -5.8471    9.3618   -3.0308 H   0  0  0  0  0  0  0  0  0  0  0  0
   -7.6005    8.9715   -3.0308 H   0  0  0  0  0  0  0  0  0  0  0  0
   -5.3970    7.5442   -0.0726 H   0  0  0  0  0  0  0  0  0  0  0  0
   -4.4426    6.6970   -1.3367 H   0  0  0  0  0  0  0  0  0  0  0  0
   -4.5408    8.4906   -1.3367 H   0  0  0  0  0  0  0  0  0  0  0  0
   -9.8386    4.0436   -0.3851 H   0  0  0  0  0  0  0  0  0  0  0  0
  -10.7232    3.8724   -1.9391 H   0  0  0  0  0  0  0  0  0  0  0  0
   -8.9381    4.0719   -1.9391 H   0  0  0  0  0  0  0  0  0  0  0  0
  -11.0335    6.1668   -3.4326 H   0  0  0  0  0  0  0  0  0  0  0  0
  -12.0392    5.3734   -2.0932 H   0  0  0  0  0  0  0  0  0  0  0  0
  -11.4955    8.3282   -2.4932 H   0  0  0  0  0  0  0  0  0  0  0  0
  -13.0648    7.4411   -2.6253 H   0  0  0  0  0  0  0  0  0  0  0  0
  -13.2735    6.4998    0.9788 H   0  0  0  0  0  0  0  0  0  0  0  0
  -14.2821    6.6698   -0.4979 H   0  0  0  0  0  0  0  0  0  0  0  0
  -12.8694    5.5602   -0.4979 H   0  0  0  0  0  0  0  0  0  0  0  0
  1  2  1  0
  2  3  1  0
  3  4  1  0
  4  5  1  0
  5  6  1  0
  6  7  1  0
  7  8  1  0
  7  9  1  0
  2 10  1  0
 10 11  1  0
 11 12  1  0
 12 13  1  0
 13 14  1  6
 13 15  1  0
 15 16  1  0
 16 17  1  0
 17 18  2  0
 18 19  1  0
 19 20  1  0
 20 21  1  0
 21 22  1  0
 22 23  1  0
 22 24  1  0
 24 25  1  0
 24 26  1  0
 19 27  1  0
 27 28  1  1
 27 29  1  0
 29 30  1  0
 30 31  1  0
 31 32  1  1
  7  5  1  0
 31 10  1  0
 31 13  1  0
 27 15  1  0
 24 18  1  0
  1 33  1  0
  1 34  1  0
  1 35  1  0
  2 36  1  6
  3 37  1  0
  3 38  1  0
  4 39  1  0
  4 40  1  0
  5 41  1  1
  8 42  1  0
  8 43  1  0
  8 44  1  0
  9 45  1  0
  9 46  1  0
  9 47  1  0
 10 48  1  6
 11 49  1  0
 11 50  1  0
 12 51  1  0
 12 52  1  0
 14 53  1  0
 14 54  1  0
 14 55  1  0
 15 56  1  1
 16 57  1  0
 16 58  1  0
 17 59  1  0
 19 60  1  6
 20 61  1  0
 20 62  1  0
 21 63  1  0
 21 64  1  0
 22 65  1  6
 23 66  1  0
 25 67  1  0
 25 68  1  0
 25 69  1  0
 26 70  1  0
 26 71  1  0
 26 72  1  0
 28 73  1  0
 28 74  1  0
 28 75  1  0
 29 76  1  0
 29 77  1  0
 30 78  1  0
 30 79  1  0
 32 80  1  0
 32 81  1  0
 32 82  1  0
M  END
>  <meeko>  (20) 
{"is_sidechain": [false], "intermolecular_energy": 2.731, "internal_energy": -0.839}

$$$$
