EPH_relaxed_0001_pdb2pqr_Repair_335_r2_0001_out
     RDKit          3D

 82 86  0  0  0  0  0  0  0  0999 V2000
    4.6370   18.1040   -0.7730 C   0  0  0  0  0  0  0  0  0  0  0  0
    3.2550   18.6190   -0.3600 C   0  0  2  0  0  0  0  0  0  0  0  0
    3.2280   19.1010    1.1040 C   0  0  0  0  0  0  0  0  0  0  0  0
    4.4670   18.6980    1.9080 C   0  0  0  0  0  0  0  0  0  0  0  0
    4.4450   19.2780    3.2900 C   0  0  2  0  0  0  0  0  0  0  0  0
    5.5100   20.1940    3.5720 O   0  0  0  0  0  0  0  0  0  0  0  0
    5.4990   18.9800    4.3390 C   0  0  0  0  0  0  0  0  0  0  0  0
    6.6500   18.0670    4.0520 C   0  0  0  0  0  0  0  0  0  0  0  0
    5.1510   19.1810    5.7810 C   0  0  0  0  0  0  0  0  0  0  0  0
    2.2100   17.5290   -0.5690 C   0  0  1  0  0  0  0  0  0  0  0  0
    0.9300   18.0540   -1.2710 C   0  0  0  0  0  0  0  0  0  0  0  0
    0.4140   16.9080   -2.1780 C   0  0  0  0  0  0  0  0  0  0  0  0
    1.2100   15.6620   -1.7230 C   0  0  1  0  0  0  0  0  0  0  0  0
    0.4670   15.1560   -0.4470 C   0  0  0  0  0  0  0  0  0  0  0  0
    1.3780   14.5250   -2.7820 C   0  0  2  0  0  0  0  0  0  0  0  0
    0.0670   13.8720   -3.2530 C   0  0  0  0  0  0  0  0  0  0  0  0
   -0.3750   12.6860   -2.4620 C   0  0  0  0  0  0  0  0  0  0  0  0
    0.3910   11.9920   -1.6000 C   0  0  0  0  0  0  0  0  0  0  0  0
    1.8780   12.3240   -1.4230 C   0  0  1  0  0  0  0  0  0  0  0  0
    2.7080   11.0140   -1.4490 C   0  0  0  0  0  0  0  0  0  0  0  0
    2.2150    9.9880   -0.4340 C   0  0  0  0  0  0  0  0  0  0  0  0
    0.7490    9.6400   -0.6780 C   0  0  2  0  0  0  0  0  0  0  0  0
    0.6410    8.9520   -1.9290 O   0  0  0  0  0  0  0  0  0  0  0  0
   -0.1840   10.8830   -0.6830 C   0  0  0  0  0  0  0  0  0  0  0  0
   -0.3010   11.4520    0.7530 C   0  0  0  0  0  0  0  0  0  0  0  0
   -1.6080   10.4100   -1.0800 C   0  0  0  0  0  0  0  0  0  0  0  0
    2.4600   13.4360   -2.3980 C   0  0  1  0  0  0  0  0  0  0  0  0
    2.9270   12.7810   -3.7340 C   0  0  0  0  0  0  0  0  0  0  0  0
    3.7430   14.0720   -1.7440 C   0  0  0  0  0  0  0  0  0  0  0  0
    3.5210   15.2690   -0.7990 C   0  0  0  0  0  0  0  0  0  0  0  0
    2.6120   16.3180   -1.4480 C   0  0  2  0  0  0  0  0  0  0  0  0
    3.3430   16.8620   -2.7220 C   0  0  0  0  0  0  0  0  0  0  0  0
    5.2299   17.8831    0.1268 H   0  0  0  0  0  0  0  0  0  0  0  0
    4.5232   17.1879   -1.3712 H   0  0  0  0  0  0  0  0  0  0  0  0
    5.1505   18.8711   -1.3712 H   0  0  0  0  0  0  0  0  0  0  0  0
    3.0213   19.4851   -0.9966 H   0  0  0  0  0  0  0  0  0  0  0  0
    3.1541   20.1985    1.1069 H   0  0  0  0  0  0  0  0  0  0  0  0
    2.3629   18.6206    1.5845 H   0  0  0  0  0  0  0  0  0  0  0  0
    4.5022   17.6011    1.9825 H   0  0  0  0  0  0  0  0  0  0  0  0
    5.3545   19.0869    1.3874 H   0  0  0  0  0  0  0  0  0  0  0  0
    3.3461   19.2357    3.3153 H   0  0  0  0  0  0  0  0  0  0  0  0
    7.0877   17.7198    4.9996 H   0  0  0  0  0  0  0  0  0  0  0  0
    6.2959   17.2015    3.4728 H   0  0  0  0  0  0  0  0  0  0  0  0
    7.4122   18.6088    3.4728 H   0  0  0  0  0  0  0  0  0  0  0  0
    5.9308   18.7306    6.4126 H   0  0  0  0  0  0  0  0  0  0  0  0
    5.0824   20.2578    5.9950 H   0  0  0  0  0  0  0  0  0  0  0  0
    4.1840   18.7023    5.9950 H   0  0  0  0  0  0  0  0  0  0  0  0
    2.0684   17.2079    0.4735 H   0  0  0  0  0  0  0  0  0  0  0  0
    0.1681   18.3165   -0.5222 H   0  0  0  0  0  0  0  0  0  0  0  0
    1.1457   18.9571   -1.8607 H   0  0  0  0  0  0  0  0  0  0  0  0
   -0.6654   16.7537   -2.0326 H   0  0  0  0  0  0  0  0  0  0  0  0
    0.5554   17.1260   -3.2469 H   0  0  0  0  0  0  0  0  0  0  0  0
    0.9932   15.5144    0.4500 H   0  0  0  0  0  0  0  0  0  0  0  0
   -0.5635   15.5409   -0.4459 H   0  0  0  0  0  0  0  0  0  0  0  0
    0.4476   14.0562   -0.4459 H   0  0  0  0  0  0  0  0  0  0  0  0
    1.7693   15.0712   -3.6530 H   0  0  0  0  0  0  0  0  0  0  0  0
   -0.7281   14.6304   -3.2014 H   0  0  0  0  0  0  0  0  0  0  0  0
    0.2594   13.5038   -4.2715 H   0  0  0  0  0  0  0  0  0  0  0  0
   -1.4143   12.3509   -2.5947 H   0  0  0  0  0  0  0  0  0  0  0  0
    1.9681   12.8021   -0.4365 H   0  0  0  0  0  0  0  0  0  0  0  0
    2.6414   10.5745   -2.4552 H   0  0  0  0  0  0  0  0  0  0  0  0
    3.7449   11.2709   -1.1867 H   0  0  0  0  0  0  0  0  0  0  0  0
    2.8213    9.0744   -0.5221 H   0  0  0  0  0  0  0  0  0  0  0  0
    2.3107   10.4175    0.5741 H   0  0  0  0  0  0  0  0  0  0  0  0
    0.4179    9.0036    0.1559 H   0  0  0  0  0  0  0  0  0  0  0  0
    1.5240    8.6150   -2.1560 H   0  0  0  0  0  0  0  0  0  0  0  0
   -0.1351   10.6450    1.4818 H   0  0  0  0  0  0  0  0  0  0  0  0
    0.4542   12.2384    0.8985 H   0  0  0  0  0  0  0  0  0  0  0  0
   -1.3053   11.8766    0.8985 H   0  0  0  0  0  0  0  0  0  0  0  0
   -2.1961   10.2146   -0.1712 H   0  0  0  0  0  0  0  0  0  0  0  0
   -2.1016   11.1924   -1.6751 H   0  0  0  0  0  0  0  0  0  0  0  0
   -1.5354    9.4877   -1.6751 H   0  0  0  0  0  0  0  0  0  0  0  0
    3.5526   11.9036   -3.5132 H   0  0  0  0  0  0  0  0  0  0  0  0
    2.0476   12.4673   -4.3156 H   0  0  0  0  0  0  0  0  0  0  0  0
    3.5102   13.5101   -4.3156 H   0  0  0  0  0  0  0  0  0  0  0  0
    4.2489   13.2829   -1.1683 H   0  0  0  0  0  0  0  0  0  0  0  0
    4.3257   14.4743   -2.5858 H   0  0  0  0  0  0  0  0  0  0  0  0
    3.0526   14.9121    0.1301 H   0  0  0  0  0  0  0  0  0  0  0  0
    4.4952   15.7328   -0.5851 H   0  0  0  0  0  0  0  0  0  0  0  0
    4.1908   17.4929   -2.4169 H   0  0  0  0  0  0  0  0  0  0  0  0
    3.7120   16.0170   -3.3219 H   0  0  0  0  0  0  0  0  0  0  0  0
    2.6396   17.4581   -3.3219 H   0  0  0  0  0  0  0  0  0  0  0  0
  1  2  1  0
  2  3  1  0
  3  4  1  0
  4  5  1  0
  5  6  1  0
  6  7  1  0
  7  8  1  0
  7  9  1  0
  2 10  1  0
 10 11  1  0
 11 12  1  0
 12 13  1  0
 13 14  1  1
 13 15  1  0
 15 16  1  0
 16 17  1  0
 17 18  2  0
 18 19  1  0
 19 20  1  0
 20 21  1  0
 21 22  1  0
 22 23  1  0
 22 24  1  0
 24 25  1  0
 24 26  1  0
 19 27  1  0
 27 28  1  6
 27 29  1  0
 29 30  1  0
 30 31  1  0
 31 32  1  6
  7  5  1  0
 31 10  1  0
 31 13  1  0
 27 15  1  0
 24 18  1  0
  1 33  1  0
  1 34  1  0
  1 35  1  0
  2 36  1  6
  3 37  1  0
  3 38  1  0
  4 39  1  0
  4 40  1  0
  5 41  1  1
  8 42  1  0
  8 43  1  0
  8 44  1  0
  9 45  1  0
  9 46  1  0
  9 47  1  0
 10 48  1  1
 11 49  1  0
 11 50  1  0
 12 51  1  0
 12 52  1  0
 14 53  1  0
 14 54  1  0
 14 55  1  0
 15 56  1  6
 16 57  1  0
 16 58  1  0
 17 59  1  0
 19 60  1  1
 20 61  1  0
 20 62  1  0
 21 63  1  0
 21 64  1  0
 22 65  1  1
 23 66  1  0
 25 67  1  0
 25 68  1  0
 25 69  1  0
 26 70  1  0
 26 71  1  0
 26 72  1  0
 28 73  1  0
 28 74  1  0
 28 75  1  0
 29 76  1  0
 29 77  1  0
 30 78  1  0
 30 79  1  0
 32 80  1  0
 32 81  1  0
 32 82  1  0
M  END
>  <meeko>  (1) 
{"is_sidechain": [false], "intermolecular_energy": 2.731, "internal_energy": -0.839}

$$$$
EPH_relaxed_0001_pdb2pqr_Repair_335_r2_0001_out
     RDKit          3D

 82 86  0  0  0  0  0  0  0  0999 V2000
    4.2440   18.3700   -0.1410 C   0  0  0  0  0  0  0  0  0  0  0  0
    3.0300   18.8410   -0.9460 C   0  0  2  0  0  0  0  0  0  0  0  0
    2.3160   20.0330   -0.2760 C   0  0  0  0  0  0  0  0  0  0  0  0
    1.2390   19.6190    0.7300 C   0  0  0  0  0  0  0  0  0  0  0  0
   -0.1000   20.1940    0.3770 C   0  0  2  0  0  0  0  0  0  0  0  0
   -1.0520   20.1940    1.4480 O   0  0  0  0  0  0  0  0  0  0  0  0
   -1.3730   19.3720    0.3150 C   0  0  0  0  0  0  0  0  0  0  0  0
   -1.3700   17.9040    0.6080 C   0  0  0  0  0  0  0  0  0  0  0  0
   -2.5190   19.8880   -0.4990 C   0  0  0  0  0  0  0  0  0  0  0  0
    2.0520   17.6880   -1.1340 C   0  0  1  0  0  0  0  0  0  0  0  0
    0.8400   18.0710   -2.0250 C   0  0  0  0  0  0  0  0  0  0  0  0
    0.4660   16.8060   -2.8400 C   0  0  0  0  0  0  0  0  0  0  0  0
    1.2480   15.6580   -2.1600 C   0  0  1  0  0  0  0  0  0  0  0  0
    0.3860   15.2660   -0.9190 C   0  0  0  0  0  0  0  0  0  0  0  0
    1.5700   14.4170   -3.0540 C   0  0  2  0  0  0  0  0  0  0  0  0
    0.3420   13.6550   -3.5810 C   0  0  0  0  0  0  0  0  0  0  0  0
   -0.1450   12.5470   -2.7070 C   0  0  0  0  0  0  0  0  0  0  0  0
    0.5430   11.9920   -1.6920 C   0  0  0  0  0  0  0  0  0  0  0  0
    1.9900   12.4100   -1.3990 C   0  0  1  0  0  0  0  0  0  0  0  0
    2.8610   11.1450   -1.1830 C   0  0  0  0  0  0  0  0  0  0  0  0
    2.2930   10.2190   -0.1120 C   0  0  0  0  0  0  0  0  0  0  0  0
    0.8750    9.7780   -0.4680 C   0  0  2  0  0  0  0  0  0  0  0  0
    0.9290    8.9490   -1.6320 O   0  0  0  0  0  0  0  0  0  0  0  0
   -0.0920   10.9690   -0.7180 C   0  0  0  0  0  0  0  0  0  0  0  0
   -0.3860   11.6910    0.6200 C   0  0  0  0  0  0  0  0  0  0  0  0
   -1.4470   10.3890   -1.2050 C   0  0  0  0  0  0  0  0  0  0  0  0
    2.6390   13.4290   -2.4310 C   0  0  1  0  0  0  0  0  0  0  0  0
    3.2720   12.6490   -3.6230 C   0  0  0  0  0  0  0  0  0  0  0  0
    3.8200   14.1940   -1.7240 C   0  0  0  0  0  0  0  0  0  0  0  0
    3.4550   15.4790   -0.9560 C   0  0  0  0  0  0  0  0  0  0  0  0
    2.5890   16.4040   -1.8170 C   0  0  2  0  0  0  0  0  0  0  0  0
    3.4380   16.8330   -3.0620 C   0  0  0  0  0  0  0  0  0  0  0  0
    4.0263   18.4544    0.9339 H   0  0  0  0  0  0  0  0  0  0  0  0
    4.4641   17.3212   -0.3893 H   0  0  0  0  0  0  0  0  0  0  0  0
    5.1138   18.9959   -0.3893 H   0  0  0  0  0  0  0  0  0  0  0  0
    3.3951   19.1826   -1.9258 H   0  0  0  0  0  0  0  0  0  0  0  0
    3.0691   20.6375    0.2507 H   0  0  0  0  0  0  0  0  0  0  0  0
    1.8104   20.5952   -1.0750 H   0  0  0  0  0  0  0  0  0  0  0  0
    1.1641   18.5216    0.7407 H   0  0  0  0  0  0  0  0  0  0  0  0
    1.5276   20.0041    1.7192 H   0  0  0  0  0  0  0  0  0  0  0  0
    0.3617   20.8937   -0.3352 H   0  0  0  0  0  0  0  0  0  0  0  0
   -1.3697   17.7474    1.6968 H   0  0  0  0  0  0  0  0  0  0  0  0
   -2.2672   17.4411    0.1713 H   0  0  0  0  0  0  0  0  0  0  0  0
   -0.4709   17.4448    0.1713 H   0  0  0  0  0  0  0  0  0  0  0  0
   -3.3137   20.2458    0.1721 H   0  0  0  0  0  0  0  0  0  0  0  0
   -2.1738   20.7176   -1.1336 H   0  0  0  0  0  0  0  0  0  0  0  0
   -2.9113   19.0797   -1.1336 H   0  0  0  0  0  0  0  0  0  0  0  0
    1.8070   17.4810   -0.0818 H   0  0  0  0  0  0  0  0  0  0  0  0
   -0.0083   18.3817   -1.3974 H   0  0  0  0  0  0  0  0  0  0  0  0
    1.0891   18.9103   -2.6909 H   0  0  0  0  0  0  0  0  0  0  0  0
   -0.6170   16.6196   -2.7923 H   0  0  0  0  0  0  0  0  0  0  0  0
    0.7173   16.9074   -3.9061 H   0  0  0  0  0  0  0  0  0  0  0  0
    0.9340   15.5152    0.0016 H   0  0  0  0  0  0  0  0  0  0  0  0
   -0.5635   15.8208   -0.9421 H   0  0  0  0  0  0  0  0  0  0  0  0
    0.1801   14.1857   -0.9421 H   0  0  0  0  0  0  0  0  0  0  0  0
    2.0366   14.8782   -3.9369 H   0  0  0  0  0  0  0  0  0  0  0  0
   -0.4789   14.3768   -3.7037 H   0  0  0  0  0  0  0  0  0  0  0  0
    0.6583   13.1828   -4.5228 H   0  0  0  0  0  0  0  0  0  0  0  0
   -1.1510   12.1508   -2.9096 H   0  0  0  0  0  0  0  0  0  0  0  0
    1.9543   13.0007   -0.4718 H   0  0  0  0  0  0  0  0  0  0  0  0
    2.9205   10.5918   -2.1319 H   0  0  0  0  0  0  0  0  0  0  0  0
    3.8536   11.4771   -0.8447 H   0  0  0  0  0  0  0  0  0  0  0  0
    2.9357    9.3303   -0.0268 H   0  0  0  0  0  0  0  0  0  0  0  0
    2.2618   10.7641    0.8429 H   0  0  0  0  0  0  0  0  0  0  0  0
    0.4746    9.2252    0.3946 H   0  0  0  0  0  0  0  0  0  0  0  0
    0.0230    8.6540   -1.8260 H   0  0  0  0  0  0  0  0  0  0  0  0
   -0.1177   11.0320    1.4589 H   0  0  0  0  0  0  0  0  0  0  0  0
    0.2072   12.6156    0.6758 H   0  0  0  0  0  0  0  0  0  0  0  0
   -1.4564   11.9382    0.6758 H   0  0  0  0  0  0  0  0  0  0  0  0
   -2.0662   10.1240   -0.3353 H   0  0  0  0  0  0  0  0  0  0  0  0
   -1.9709   11.1417   -1.8124 H   0  0  0  0  0  0  0  0  0  0  0  0
   -1.2641    9.4903   -1.8124 H   0  0  0  0  0  0  0  0  0  0  0  0
    3.9206   11.8498   -3.2351 H   0  0  0  0  0  0  0  0  0  0  0  0
    2.4736   12.2075   -4.2375 H   0  0  0  0  0  0  0  0  0  0  0  0
    3.8684   13.3394   -4.2375 H   0  0  0  0  0  0  0  0  0  0  0  0
    4.2851   13.4997   -1.0087 H   0  0  0  0  0  0  0  0  0  0  0  0
    4.4784   14.5244   -2.5409 H   0  0  0  0  0  0  0  0  0  0  0  0
    2.8989   15.2090   -0.0462 H   0  0  0  0  0  0  0  0  0  0  0  0
    4.3835   16.0085   -0.6962 H   0  0  0  0  0  0  0  0  0  0  0  0
    4.3722   17.3051   -2.7237 H   0  0  0  0  0  0  0  0  0  0  0  0
    3.6740   15.9459   -3.6682 H   0  0  0  0  0  0  0  0  0  0  0  0
    2.8639   17.5492   -3.6682 H   0  0  0  0  0  0  0  0  0  0  0  0
  1  2  1  0
  2  3  1  0
  3  4  1  0
  4  5  1  0
  5  6  1  0
  6  7  1  0
  7  8  1  0
  7  9  1  0
  2 10  1  0
 10 11  1  0
 11 12  1  0
 12 13  1  0
 13 14  1  1
 13 15  1  0
 15 16  1  0
 16 17  1  0
 17 18  2  0
 18 19  1  0
 19 20  1  0
 20 21  1  0
 21 22  1  0
 22 23  1  0
 22 24  1  0
 24 25  1  0
 24 26  1  0
 19 27  1  0
 27 28  1  6
 27 29  1  0
 29 30  1  0
 30 31  1  0
 31 32  1  6
  7  5  1  0
 31 10  1  0
 31 13  1  0
 27 15  1  0
 24 18  1  0
  1 33  1  0
  1 34  1  0
  1 35  1  0
  2 36  1  6
  3 37  1  0
  3 38  1  0
  4 39  1  0
  4 40  1  0
  5 41  1  6
  8 42  1  0
  8 43  1  0
  8 44  1  0
  9 45  1  0
  9 46  1  0
  9 47  1  0
 10 48  1  1
 11 49  1  0
 11 50  1  0
 12 51  1  0
 12 52  1  0
 14 53  1  0
 14 54  1  0
 14 55  1  0
 15 56  1  6
 16 57  1  0
 16 58  1  0
 17 59  1  0
 19 60  1  1
 20 61  1  0
 20 62  1  0
 21 63  1  0
 21 64  1  0
 22 65  1  1
 23 66  1  0
 25 67  1  0
 25 68  1  0
 25 69  1  0
 26 70  1  0
 26 71  1  0
 26 72  1  0
 28 73  1  0
 28 74  1  0
 28 75  1  0
 29 76  1  0
 29 77  1  0
 30 78  1  0
 30 79  1  0
 32 80  1  0
 32 81  1  0
 32 82  1  0
M  END
>  <meeko>  (2) 
{"is_sidechain": [false], "intermolecular_energy": 2.731, "internal_energy": -0.839}

$$$$
EPH_relaxed_0001_pdb2pqr_Repair_335_r2_0001_out
     RDKit          3D

 82 86  0  0  0  0  0  0  0  0999 V2000
   -0.9670    9.0760   -2.1380 C   0  0  0  0  0  0  0  0  0  0  0  0
   -1.3250    9.3270   -0.6710 C   0  0  2  0  0  0  0  0  0  0  0  0
   -2.8500    9.3340   -0.4380 C   0  0  0  0  0  0  0  0  0  0  0  0
   -3.5930    8.2320   -1.1990 C   0  0  0  0  0  0  0  0  0  0  0  0
   -5.0420    8.1760   -0.8170 C   0  0  2  0  0  0  0  0  0  0  0  0
   -5.5140    6.8740   -0.4480 O   0  0  0  0  0  0  0  0  0  0  0  0
   -6.0940    7.4460   -1.6310 C   0  0  0  0  0  0  0  0  0  0  0  0
   -5.7410    6.7230   -2.8930 C   0  0  0  0  0  0  0  0  0  0  0  0
   -7.5280    7.8440   -1.4680 C   0  0  0  0  0  0  0  0  0  0  0  0
   -0.7220   10.6470   -0.2060 C   0  0  1  0  0  0  0  0  0  0  0  0
    0.1490   10.4900    1.0680 C   0  0  0  0  0  0  0  0  0  0  0  0
    1.3190   11.4990    0.9380 C   0  0  0  0  0  0  0  0  0  0  0  0
    0.9070   12.4260   -0.2300 C   0  0  1  0  0  0  0  0  0  0  0  0
   -0.0780   13.4570    0.4050 C   0  0  0  0  0  0  0  0  0  0  0  0
    2.0720   13.1350   -0.9940 C   0  0  2  0  0  0  0  0  0  0  0  0
    2.9160   14.1010   -0.1440 C   0  0  0  0  0  0  0  0  0  0  0  0
    2.4410   15.5160   -0.1260 C   0  0  0  0  0  0  0  0  0  0  0  0
    1.5550   16.0550   -0.9840 C   0  0  0  0  0  0  0  0  0  0  0  0
    1.0070   15.2410   -2.1640 C   0  0  1  0  0  0  0  0  0  0  0  0
    1.0610   16.1000   -3.4540 C   0  0  0  0  0  0  0  0  0  0  0  0
    0.3550   17.4430   -3.2940 C   0  0  0  0  0  0  0  0  0  0  0  0
    0.9670   18.2470   -2.1490 C   0  0  2  0  0  0  0  0  0  0  0  0
    2.3040   18.6110   -2.5050 O   0  0  0  0  0  0  0  0  0  0  0  0
    0.9760   17.4790   -0.7980 C   0  0  0  0  0  0  0  0  0  0  0  0
   -0.4710   17.3490   -0.2630 C   0  0  0  0  0  0  0  0  0  0  0  0
    1.7460   18.3430    0.2370 C   0  0  0  0  0  0  0  0  0  0  0  0
    1.6400   13.7980   -2.3640 C   0  0  1  0  0  0  0  0  0  0  0  0
    2.9290   13.8980   -3.2360 C   0  0  0  0  0  0  0  0  0  0  0  0
    0.6280   12.9000   -3.1700 C   0  0  0  0  0  0  0  0  0  0  0  0
   -0.4240   12.1300   -2.3490 C   0  0  0  0  0  0  0  0  0  0  0  0
    0.2300   11.3770   -1.1860 C   0  0  2  0  0  0  0  0  0  0  0  0
    1.2110   10.3170   -1.7950 C   0  0  0  0  0  0  0  0  0  0  0  0
   -0.0675    8.4453   -2.1932 H   0  0  0  0  0  0  0  0  0  0  0  0
   -1.8037    8.5658   -2.6375 H   0  0  0  0  0  0  0  0  0  0  0  0
   -0.7725   10.0366   -2.6375 H   0  0  0  0  0  0  0  0  0  0  0  0
   -0.9042    8.4985   -0.0823 H   0  0  0  0  0  0  0  0  0  0  0  0
   -3.0378    9.2008    0.6376 H   0  0  0  0  0  0  0  0  0  0  0  0
   -3.2287   10.2961   -0.8135 H   0  0  0  0  0  0  0  0  0  0  0  0
   -3.5160    8.4297   -2.2783 H   0  0  0  0  0  0  0  0  0  0  0  0
   -3.1325    7.2667   -0.9419 H   0  0  0  0  0  0  0  0  0  0  0  0
   -4.9994    9.1984   -0.4134 H   0  0  0  0  0  0  0  0  0  0  0  0
   -5.2708    5.7600   -2.6447 H   0  0  0  0  0  0  0  0  0  0  0  0
   -6.6534    6.5447   -3.4809 H   0  0  0  0  0  0  0  0  0  0  0  0
   -5.0393    7.3328   -3.4809 H   0  0  0  0  0  0  0  0  0  0  0  0
   -7.7704    7.9113   -0.3972 H   0  0  0  0  0  0  0  0  0  0  0  0
   -7.6934    8.8220   -1.9435 H   0  0  0  0  0  0  0  0  0  0  0  0
   -8.1738    7.0911   -1.9435 H   0  0  0  0  0  0  0  0  0  0  0  0
   -1.6430   11.2326   -0.0685 H   0  0  0  0  0  0  0  0  0  0  0  0
   -0.4473   10.7151    1.9645 H   0  0  0  0  0  0  0  0  0  0  0  0
    0.5245    9.4606    1.1650 H   0  0  0  0  0  0  0  0  0  0  0  0
    1.4398   12.0753    1.8671 H   0  0  0  0  0  0  0  0  0  0  0  0
    2.2819   10.9998    0.7546 H   0  0  0  0  0  0  0  0  0  0  0  0
   -0.0179   13.3941    1.5016 H   0  0  0  0  0  0  0  0  0  0  0  0
    0.1943   14.4722    0.0805 H   0  0  0  0  0  0  0  0  0  0  0  0
   -1.1045   13.2313    0.0805 H   0  0  0  0  0  0  0  0  0  0  0  0
    2.7373   12.2949   -1.2421 H   0  0  0  0  0  0  0  0  0  0  0  0
    2.9176   13.7298    0.8915 H   0  0  0  0  0  0  0  0  0  0  0  0
    3.9138   14.1209   -0.6065 H   0  0  0  0  0  0  0  0  0  0  0  0
    2.8498   16.1742    0.6548 H   0  0  0  0  0  0  0  0  0  0  0  0
   -0.0387   15.0084   -1.9141 H   0  0  0  0  0  0  0  0  0  0  0  0
    2.1146   16.2842   -3.7109 H   0  0  0  0  0  0  0  0  0  0  0  0
    0.5416   15.5428   -4.2475 H   0  0  0  0  0  0  0  0  0  0  0  0
    0.4530   18.0150   -4.2284 H   0  0  0  0  0  0  0  0  0  0  0  0
   -0.7052   17.2580   -3.0663 H   0  0  0  0  0  0  0  0  0  0  0  0
    0.3396   19.1380   -1.9987 H   0  0  0  0  0  0  0  0  0  0  0  0
    2.6400   17.9350   -3.1160 H   0  0  0  0  0  0  0  0  0  0  0  0
   -0.4568   17.3503    0.8369 H   0  0  0  0  0  0  0  0  0  0  0  0
   -1.0725   18.1967   -0.6229 H   0  0  0  0  0  0  0  0  0  0  0  0
   -0.9118   16.4076   -0.6229 H   0  0  0  0  0  0  0  0  0  0  0  0
    1.4679   18.0309    1.2545 H   0  0  0  0  0  0  0  0  0  0  0  0
    2.8283   18.2075    0.0949 H   0  0  0  0  0  0  0  0  0  0  0  0
    1.4873   19.4027    0.0949 H   0  0  0  0  0  0  0  0  0  0  0  0
    3.8102   13.9664   -2.5812 H   0  0  0  0  0  0  0  0  0  0  0  0
    3.0125   13.0036   -3.8709 H   0  0  0  0  0  0  0  0  0  0  0  0
    2.8735   14.7945   -3.8709 H   0  0  0  0  0  0  0  0  0  0  0  0
    0.0892   13.5536   -3.8718 H   0  0  0  0  0  0  0  0  0  0  0  0
    1.2467   12.1242   -3.6447 H   0  0  0  0  0  0  0  0  0  0  0  0
   -1.1593   12.8429   -1.9477 H   0  0  0  0  0  0  0  0  0  0  0  0
   -0.9156   11.3987   -3.0075 H   0  0  0  0  0  0  0  0  0  0  0  0
    1.7142    9.7733   -0.9818 H   0  0  0  0  0  0  0  0  0  0  0  0
    0.6445    9.6069   -2.4153 H   0  0  0  0  0  0  0  0  0  0  0  0
    1.9628   10.8269   -2.4153 H   0  0  0  0  0  0  0  0  0  0  0  0
  1  2  1  0
  2  3  1  0
  3  4  1  0
  4  5  1  0
  5  6  1  0
  6  7  1  0
  7  8  1  0
  7  9  1  0
  2 10  1  0
 10 11  1  0
 11 12  1  0
 12 13  1  0
 13 14  1  1
 13 15  1  0
 15 16  1  0
 16 17  1  0
 17 18  2  0
 18 19  1  0
 19 20  1  0
 20 21  1  0
 21 22  1  0
 22 23  1  0
 22 24  1  0
 24 25  1  0
 24 26  1  0
 19 27  1  0
 27 28  1  6
 27 29  1  0
 29 30  1  0
 30 31  1  0
 31 32  1  6
  7  5  1  0
 31 10  1  0
 31 13  1  0
 27 15  1  0
 24 18  1  0
  1 33  1  0
  1 34  1  0
  1 35  1  0
  2 36  1  1
  3 37  1  0
  3 38  1  0
  4 39  1  0
  4 40  1  0
  5 41  1  1
  8 42  1  0
  8 43  1  0
  8 44  1  0
  9 45  1  0
  9 46  1  0
  9 47  1  0
 10 48  1  1
 11 49  1  0
 11 50  1  0
 12 51  1  0
 12 52  1  0
 14 53  1  0
 14 54  1  0
 14 55  1  0
 15 56  1  6
 16 57  1  0
 16 58  1  0
 17 59  1  0
 19 60  1  1
 20 61  1  0
 20 62  1  0
 21 63  1  0
 21 64  1  0
 22 65  1  1
 23 66  1  0
 25 67  1  0
 25 68  1  0
 25 69  1  0
 26 70  1  0
 26 71  1  0
 26 72  1  0
 28 73  1  0
 28 74  1  0
 28 75  1  0
 29 76  1  0
 29 77  1  0
 30 78  1  0
 30 79  1  0
 32 80  1  0
 32 81  1  0
 32 82  1  0
M  END
>  <meeko>  (3) 
{"is_sidechain": [false], "intermolecular_energy": 2.731, "internal_energy": -0.839}

$$$$
EPH_relaxed_0001_pdb2pqr_Repair_335_r2_0001_out
     RDKit          3D

 82 86  0  0  0  0  0  0  0  0999 V2000
    0.6410   18.2530   -0.0790 C   0  0  0  0  0  0  0  0  0  0  0  0
    1.6690   17.2410   -0.5940 C   0  0  2  0  0  0  0  0  0  0  0  0
    2.6380   17.8670   -1.6170 C   0  0  0  0  0  0  0  0  0  0  0  0
    3.9180   18.4250   -0.9900 C   0  0  0  0  0  0  0  0  0  0  0  0
    3.8330   18.4610    0.5060 C   0  0  2  0  0  0  0  0  0  0  0  0
    3.6370   19.7670    1.0630 O   0  0  0  0  0  0  0  0  0  0  0  0
    4.8780   19.1190    1.3880 C   0  0  0  0  0  0  0  0  0  0  0  0
    6.0840   19.7860    0.8040 C   0  0  0  0  0  0  0  0  0  0  0  0
    4.9790   18.6910    2.8190 C   0  0  0  0  0  0  0  0  0  0  0  0
    0.9550   16.0470   -1.2160 C   0  0  1  0  0  0  0  0  0  0  0  0
    0.5170   16.3090   -2.6820 C   0  0  0  0  0  0  0  0  0  0  0  0
    0.6580   14.9630   -3.4390 C   0  0  0  0  0  0  0  0  0  0  0  0
    0.8480   13.9080   -2.3240 C   0  0  1  0  0  0  0  0  0  0  0  0
   -0.5930   13.6100   -1.8040 C   0  0  0  0  0  0  0  0  0  0  0  0
    1.5960   12.5970   -2.7340 C   0  0  2  0  0  0  0  0  0  0  0  0
    0.8930   11.7550   -3.8120 C   0  0  0  0  0  0  0  0  0  0  0  0
   -0.0520   10.7200   -3.2970 C   0  0  0  0  0  0  0  0  0  0  0  0
   -0.1160   10.2820   -2.0260 C   0  0  0  0  0  0  0  0  0  0  0  0
    0.8900   10.7680   -0.9750 C   0  0  1  0  0  0  0  0  0  0  0  0
    1.4230    9.5550   -0.1680 C   0  0  0  0  0  0  0  0  0  0  0  0
    0.3010    8.7180    0.4400 C   0  0  0  0  0  0  0  0  0  0  0  0
   -0.6450    8.2050   -0.6430 C   0  0  2  0  0  0  0  0  0  0  0  0
    0.0610    7.2720   -1.4670 O   0  0  0  0  0  0  0  0  0  0  0  0
   -1.2370    9.3380   -1.5260 C   0  0  0  0  0  0  0  0  0  0  0  0
   -2.2420   10.1740   -0.6960 C   0  0  0  0  0  0  0  0  0  0  0  0
   -2.0600    8.6760   -2.6650 C   0  0  0  0  0  0  0  0  0  0  0  0
    2.0560   11.7050   -1.5110 C   0  0  1  0  0  0  0  0  0  0  0  0
    3.2460   10.8340   -2.0190 C   0  0  0  0  0  0  0  0  0  0  0  0
    2.6140   12.5660   -0.3180 C   0  0  0  0  0  0  0  0  0  0  0  0
    1.9080   13.9070   -0.0390 C   0  0  0  0  0  0  0  0  0  0  0  0
    1.7490   14.7210   -1.3260 C   0  0  2  0  0  0  0  0  0  0  0  0
    3.1830   15.0550   -1.8610 C   0  0  0  0  0  0  0  0  0  0  0  0
    0.6434   18.2506    1.0210 H   0  0  0  0  0  0  0  0  0  0  0  0
    0.9008   19.2576   -0.4441 H   0  0  0  0  0  0  0  0  0  0  0  0
   -0.3594   17.9775   -0.4441 H   0  0  0  0  0  0  0  0  0  0  0  0
    2.2676   16.9094    0.2672 H   0  0  0  0  0  0  0  0  0  0  0  0
    2.9177   17.0944   -2.3483 H   0  0  0  0  0  0  0  0  0  0  0  0
    2.1119   18.7139   -2.0818 H   0  0  0  0  0  0  0  0  0  0  0  0
    4.7656   17.7883   -1.2836 H   0  0  0  0  0  0  0  0  0  0  0  0
    4.0552   19.4552   -1.3503 H   0  0  0  0  0  0  0  0  0  0  0  0
    3.3728   17.4621    0.5274 H   0  0  0  0  0  0  0  0  0  0  0  0
    6.7335   20.1452    1.6158 H   0  0  0  0  0  0  0  0  0  0  0  0
    6.6371   19.0655    0.1835 H   0  0  0  0  0  0  0  0  0  0  0  0
    5.7677   20.6374    0.1835 H   0  0  0  0  0  0  0  0  0  0  0  0
    4.7761   19.5510    3.4741 H   0  0  0  0  0  0  0  0  0  0  0  0
    4.2434   17.8975    3.0172 H   0  0  0  0  0  0  0  0  0  0  0  0
    5.9917   18.3100    3.0172 H   0  0  0  0  0  0  0  0  0  0  0  0
    0.1292   15.9330   -0.4984 H   0  0  0  0  0  0  0  0  0  0  0  0
   -0.5280   16.6513   -2.7096 H   0  0  0  0  0  0  0  0  0  0  0  0
    1.1377   17.0897   -3.1459 H   0  0  0  0  0  0  0  0  0  0  0  0
   -0.2482   14.7500   -4.0251 H   0  0  0  0  0  0  0  0  0  0  0  0
    1.4945   14.9711   -4.1533 H   0  0  0  0  0  0  0  0  0  0  0  0
   -0.5932   13.6100   -0.7040 H   0  0  0  0  0  0  0  0  0  0  0  0
   -1.2826   14.3845   -2.1707 H   0  0  0  0  0  0  0  0  0  0  0  0
   -0.9189   12.6255   -2.1707 H   0  0  0  0  0  0  0  0  0  0  0  0
    2.5100   12.9843   -3.2079 H   0  0  0  0  0  0  0  0  0  0  0  0
    0.3271   12.4387   -4.4619 H   0  0  0  0  0  0  0  0  0  0  0  0
    1.6890   11.2063   -4.3367 H   0  0  0  0  0  0  0  0  0  0  0  0
   -0.7557   10.2779   -4.0177 H   0  0  0  0  0  0  0  0  0  0  0  0
    0.3314   11.4425   -0.3094 H   0  0  0  0  0  0  0  0  0  0  0  0
    2.0145    8.9165   -0.8406 H   0  0  0  0  0  0  0  0  0  0  0  0
    2.0333    9.9465    0.6592 H   0  0  0  0  0  0  0  0  0  0  0  0
    0.7391    7.8602    0.9712 H   0  0  0  0  0  0  0  0  0  0  0  0
   -0.2710    9.3497    1.1355 H   0  0  0  0  0  0  0  0  0  0  0  0
   -1.4958    7.7246   -0.1376 H   0  0  0  0  0  0  0  0  0  0  0  0
    1.0040    7.5060   -1.4360 H   0  0  0  0  0  0  0  0  0  0  0  0
   -2.0526   10.0165    0.3761 H   0  0  0  0  0  0  0  0  0  0  0  0
   -2.1193   11.2402   -0.9372 H   0  0  0  0  0  0  0  0  0  0  0  0
   -3.2680    9.8592   -0.9372 H   0  0  0  0  0  0  0  0  0  0  0  0
   -2.8468    8.0431   -2.2287 H   0  0  0  0  0  0  0  0  0  0  0  0
   -2.5209    9.4579   -3.2864 H   0  0  0  0  0  0  0  0  0  0  0  0
   -1.3951    8.0582   -3.2864 H   0  0  0  0  0  0  0  0  0  0  0  0
    3.7983   10.4297   -1.1579 H   0  0  0  0  0  0  0  0  0  0  0  0
    2.8590   10.0042   -2.6287 H   0  0  0  0  0  0  0  0  0  0  0  0
    3.9199   11.4537   -2.6287 H   0  0  0  0  0  0  0  0  0  0  0  0
    2.5424   11.9560    0.5946 H   0  0  0  0  0  0  0  0  0  0  0  0
    3.6388   12.8362   -0.6127 H   0  0  0  0  0  0  0  0  0  0  0  0
    0.9132   13.7082    0.3862 H   0  0  0  0  0  0  0  0  0  0  0  0
    2.5206   14.4853    0.6683 H   0  0  0  0  0  0  0  0  0  0  0  0
    3.8636   15.2135   -1.0115 H   0  0  0  0  0  0  0  0  0  0  0  0
    3.5499   14.2183   -2.4736 H   0  0  0  0  0  0  0  0  0  0  0  0
    3.1424   15.9677   -2.4736 H   0  0  0  0  0  0  0  0  0  0  0  0
  1  2  1  0
  2  3  1  0
  3  4  1  0
  4  5  1  0
  5  6  1  0
  6  7  1  0
  7  8  1  0
  7  9  1  0
  2 10  1  0
 10 11  1  0
 11 12  1  0
 12 13  1  0
 13 14  1  1
 13 15  1  0
 15 16  1  0
 16 17  1  0
 17 18  2  0
 18 19  1  0
 19 20  1  0
 20 21  1  0
 21 22  1  0
 22 23  1  0
 22 24  1  0
 24 25  1  0
 24 26  1  0
 19 27  1  0
 27 28  1  6
 27 29  1  0
 29 30  1  0
 30 31  1  0
 31 32  1  6
  7  5  1  0
 31 10  1  0
 31 13  1  0
 27 15  1  0
 24 18  1  0
  1 33  1  0
  1 34  1  0
  1 35  1  0
  2 36  1  1
  3 37  1  0
  3 38  1  0
  4 39  1  0
  4 40  1  0
  5 41  1  1
  8 42  1  0
  8 43  1  0
  8 44  1  0
  9 45  1  0
  9 46  1  0
  9 47  1  0
 10 48  1  1
 11 49  1  0
 11 50  1  0
 12 51  1  0
 12 52  1  0
 14 53  1  0
 14 54  1  0
 14 55  1  0
 15 56  1  6
 16 57  1  0
 16 58  1  0
 17 59  1  0
 19 60  1  1
 20 61  1  0
 20 62  1  0
 21 63  1  0
 21 64  1  0
 22 65  1  1
 23 66  1  0
 25 67  1  0
 25 68  1  0
 25 69  1  0
 26 70  1  0
 26 71  1  0
 26 72  1  0
 28 73  1  0
 28 74  1  0
 28 75  1  0
 29 76  1  0
 29 77  1  0
 30 78  1  0
 30 79  1  0
 32 80  1  0
 32 81  1  0
 32 82  1  0
M  END
>  <meeko>  (4) 
{"is_sidechain": [false], "intermolecular_energy": 2.731, "internal_energy": -0.839}

$$$$
EPH_relaxed_0001_pdb2pqr_Repair_335_r2_0001_out
     RDKit          3D

 82 86  0  0  0  0  0  0  0  0999 V2000
    2.9120   17.1310    0.3270 C   0  0  0  0  0  0  0  0  0  0  0  0
    2.4150   17.3350   -1.1070 C   0  0  2  0  0  0  0  0  0  0  0  0
    1.6780   18.6780   -1.2810 C   0  0  0  0  0  0  0  0  0  0  0  0
    1.3350   19.3670    0.0430 C   0  0  0  0  0  0  0  0  0  0  0  0
   -0.1300   19.2830    0.3480 C   0  0  2  0  0  0  0  0  0  0  0  0
   -0.8470   18.3080   -0.4220 O   0  0  0  0  0  0  0  0  0  0  0  0
   -1.2140   19.6810   -0.6360 C   0  0  0  0  0  0  0  0  0  0  0  0
   -0.8790   20.1940   -2.0020 C   0  0  0  0  0  0  0  0  0  0  0  0
   -2.5690   20.0320   -0.1050 C   0  0  0  0  0  0  0  0  0  0  0  0
    1.5000   16.1830   -1.5090 C   0  0  1  0  0  0  0  0  0  0  0  0
    0.7530   16.4510   -2.8430 C   0  0  0  0  0  0  0  0  0  0  0  0
    0.6270   15.0860   -3.5660 C   0  0  0  0  0  0  0  0  0  0  0  0
    1.0010   14.0390   -2.4920 C   0  0  1  0  0  0  0  0  0  0  0  0
   -0.2960   13.8520   -1.6440 C   0  0  0  0  0  0  0  0  0  0  0  0
    1.5480   12.6720   -3.0190 C   0  0  2  0  0  0  0  0  0  0  0  0
    0.5610   11.8630   -3.8790 C   0  0  0  0  0  0  0  0  0  0  0  0
   -0.3040   10.9060   -3.1260 C   0  0  0  0  0  0  0  0  0  0  0  0
   -0.1000   10.4960   -1.8610 C   0  0  0  0  0  0  0  0  0  0  0  0
    1.1520   10.9280   -1.0850 C   0  0  1  0  0  0  0  0  0  0  0  0
    1.7770    9.6940   -0.3840 C   0  0  0  0  0  0  0  0  0  0  0  0
    0.7750    8.9480    0.4930 C   0  0  0  0  0  0  0  0  0  0  0  0
   -0.4270    8.4850   -0.3260 C   0  0  2  0  0  0  0  0  0  0  0  0
    0.0070    7.4900   -1.2580 O   0  0  0  0  0  0  0  0  0  0  0  0
   -1.1330    9.6420   -1.0860 C   0  0  0  0  0  0  0  0  0  0  0  0
   -1.8620   10.5600   -0.0740 C   0  0  0  0  0  0  0  0  0  0  0  0
   -2.2380    9.0200   -1.9820 C   0  0  0  0  0  0  0  0  0  0  0  0
    2.2200   11.7700   -1.9060 C   0  0  1  0  0  0  0  0  0  0  0  0
    3.2010   10.8090   -2.6450 C   0  0  0  0  0  0  0  0  0  0  0  0
    3.0940   12.6100   -0.9020 C   0  0  0  0  0  0  0  0  0  0  0  0
    2.5600   14.0020   -0.5120 C   0  0  0  0  0  0  0  0  0  0  0  0
    2.1600   14.8030   -1.7540 C   0  0  2  0  0  0  0  0  0  0  0  0
    3.4500   15.0260   -2.6150 C   0  0  0  0  0  0  0  0  0  0  0  0
    2.1326   17.4509    1.0342 H   0  0  0  0  0  0  0  0  0  0  0  0
    3.1392   16.0669    0.4884 H   0  0  0  0  0  0  0  0  0  0  0  0
    3.8213   17.7286    0.4884 H   0  0  0  0  0  0  0  0  0  0  0  0
    3.2977   17.3555   -1.7631 H   0  0  0  0  0  0  0  0  0  0  0  0
    2.3188   19.3525   -1.8679 H   0  0  0  0  0  0  0  0  0  0  0  0
    0.7257   18.4594   -1.7863 H   0  0  0  0  0  0  0  0  0  0  0  0
    1.8965   18.8804    0.8541 H   0  0  0  0  0  0  0  0  0  0  0  0
    1.6072   20.4293   -0.0425 H   0  0  0  0  0  0  0  0  0  0  0  0
    0.0491   19.5563    1.3984 H   0  0  0  0  0  0  0  0  0  0  0  0
   -0.2796   21.1119   -1.9121 H   0  0  0  0  0  0  0  0  0  0  0  0
   -0.3036   19.4324   -2.5488 H   0  0  0  0  0  0  0  0  0  0  0  0
   -1.8076   20.4146   -2.5488 H   0  0  0  0  0  0  0  0  0  0  0  0
   -2.5448   20.0257    0.9947 H   0  0  0  0  0  0  0  0  0  0  0  0
   -2.8537   21.0335   -0.4598 H   0  0  0  0  0  0  0  0  0  0  0  0
   -3.3041   19.2946   -0.4598 H   0  0  0  0  0  0  0  0  0  0  0  0
    0.8563   16.1390   -0.6181 H   0  0  0  0  0  0  0  0  0  0  0  0
   -0.2453   16.8666   -2.6414 H   0  0  0  0  0  0  0  0  0  0  0  0
    1.2989   17.1776   -3.4627 H   0  0  0  0  0  0  0  0  0  0  0  0
   -0.4023   14.9280   -3.9204 H   0  0  0  0  0  0  0  0  0  0  0  0
    1.2744   15.0228   -4.4530 H   0  0  0  0  0  0  0  0  0  0  0  0
   -0.0430   13.8885   -0.5741 H   0  0  0  0  0  0  0  0  0  0  0  0
   -1.0077   14.6568   -1.8801 H   0  0  0  0  0  0  0  0  0  0  0  0
   -0.7514   12.8789   -1.8801 H   0  0  0  0  0  0  0  0  0  0  0  0
    2.3512   12.9862   -3.7018 H   0  0  0  0  0  0  0  0  0  0  0  0
   -0.0946   12.5736   -4.4036 H   0  0  0  0  0  0  0  0  0  0  0  0
    1.1764   11.2508   -4.5547 H   0  0  0  0  0  0  0  0  0  0  0  0
   -1.1826   10.5021   -3.6504 H   0  0  0  0  0  0  0  0  0  0  0  0
    0.8086   11.6515   -0.3309 H   0  0  0  0  0  0  0  0  0  0  0  0
    2.1534    9.0044   -1.1539 H   0  0  0  0  0  0  0  0  0  0  0  0
    2.5864   10.0550    0.2675 H   0  0  0  0  0  0  0  0  0  0  0  0
    1.2681    8.0705    0.9366 H   0  0  0  0  0  0  0  0  0  0  0  0
    0.4219    9.6296    1.2809 H   0  0  0  0  0  0  0  0  0  0  0  0
   -1.1674    8.0750    0.3766 H   0  0  0  0  0  0  0  0  0  0  0  0
   -0.4740    6.6690   -1.0580 H   0  0  0  0  0  0  0  0  0  0  0  0
   -1.6131   10.2466    0.9506 H   0  0  0  0  0  0  0  0  0  0  0  0
   -1.5420   11.6013   -0.2269 H   0  0  0  0  0  0  0  0  0  0  0  0
   -2.9487   10.4842   -0.2269 H   0  0  0  0  0  0  0  0  0  0  0  0
   -3.0205    8.5795   -1.3466 H   0  0  0  0  0  0  0  0  0  0  0  0
   -2.6787    9.8026   -2.6171 H   0  0  0  0  0  0  0  0  0  0  0  0
   -1.7976    8.2372   -2.6171 H   0  0  0  0  0  0  0  0  0  0  0  0
    3.7827   10.2391   -1.9055 H   0  0  0  0  0  0  0  0  0  0  0  0
    2.6276   10.1134   -3.2754 H   0  0  0  0  0  0  0  0  0  0  0  0
    3.8846   11.3966   -3.2754 H   0  0  0  0  0  0  0  0  0  0  0  0
    3.1967   12.0221    0.0221 H   0  0  0  0  0  0  0  0  0  0  0  0
    4.0377   12.8024   -1.4334 H   0  0  0  0  0  0  0  0  0  0  0  0
    1.6801   13.8811    0.1370 H   0  0  0  0  0  0  0  0  0  0  0  0
    3.3558   14.5477    0.0161 H   0  0  0  0  0  0  0  0  0  0  0  0
    4.3134   15.1753   -1.9500 H   0  0  0  0  0  0  0  0  0  0  0  0
    3.6241   14.1446   -3.2497 H   0  0  0  0  0  0  0  0  0  0  0  0
    3.3181   15.9147   -3.2497 H   0  0  0  0  0  0  0  0  0  0  0  0
  1  2  1  0
  2  3  1  0
  3  4  1  0
  4  5  1  0
  5  6  1  0
  6  7  1  0
  7  8  1  0
  7  9  1  0
  2 10  1  0
 10 11  1  0
 11 12  1  0
 12 13  1  0
 13 14  1  1
 13 15  1  0
 15 16  1  0
 16 17  1  0
 17 18  2  0
 18 19  1  0
 19 20  1  0
 20 21  1  0
 21 22  1  0
 22 23  1  0
 22 24  1  0
 24 25  1  0
 24 26  1  0
 19 27  1  0
 27 28  1  6
 27 29  1  0
 29 30  1  0
 30 31  1  0
 31 32  1  6
  7  5  1  0
 31 10  1  0
 31 13  1  0
 27 15  1  0
 24 18  1  0
  1 33  1  0
  1 34  1  0
  1 35  1  0
  2 36  1  6
  3 37  1  0
  3 38  1  0
  4 39  1  0
  4 40  1  0
  5 41  1  1
  8 42  1  0
  8 43  1  0
  8 44  1  0
  9 45  1  0
  9 46  1  0
  9 47  1  0
 10 48  1  1
 11 49  1  0
 11 50  1  0
 12 51  1  0
 12 52  1  0
 14 53  1  0
 14 54  1  0
 14 55  1  0
 15 56  1  6
 16 57  1  0
 16 58  1  0
 17 59  1  0
 19 60  1  1
 20 61  1  0
 20 62  1  0
 21 63  1  0
 21 64  1  0
 22 65  1  1
 23 66  1  0
 25 67  1  0
 25 68  1  0
 25 69  1  0
 26 70  1  0
 26 71  1  0
 26 72  1  0
 28 73  1  0
 28 74  1  0
 28 75  1  0
 29 76  1  0
 29 77  1  0
 30 78  1  0
 30 79  1  0
 32 80  1  0
 32 81  1  0
 32 82  1  0
M  END
>  <meeko>  (5) 
{"is_sidechain": [false], "intermolecular_energy": 2.731, "internal_energy": -0.839}

$$$$
EPH_relaxed_0001_pdb2pqr_Repair_335_r2_0001_out
     RDKit          3D

 82 86  0  0  0  0  0  0  0  0999 V2000
    3.7520   18.0350   -1.4910 C   0  0  0  0  0  0  0  0  0  0  0  0
    2.7010   17.5460   -2.4910 C   0  0  2  0  0  0  0  0  0  0  0  0
    1.2850   18.0410   -2.1350 C   0  0  0  0  0  0  0  0  0  0  0  0
    1.2290   18.8760   -0.8530 C   0  0  0  0  0  0  0  0  0  0  0  0
   -0.0200   19.7020   -0.7830 C   0  0  2  0  0  0  0  0  0  0  0  0
   -0.3390   20.1940    0.5240 O   0  0  0  0  0  0  0  0  0  0  0  0
   -1.2720   19.2630   -0.0470 C   0  0  0  0  0  0  0  0  0  0  0  0
   -1.3370   17.9500    0.6680 C   0  0  0  0  0  0  0  0  0  0  0  0
   -2.5810   19.8800   -0.4310 C   0  0  0  0  0  0  0  0  0  0  0  0
    2.7180   16.0230   -2.5600 C   0  0  1  0  0  0  0  0  0  0  0  0
    4.1540   15.4470   -2.6820 C   0  0  0  0  0  0  0  0  0  0  0  0
    4.1690   14.1120   -1.8930 C   0  0  0  0  0  0  0  0  0  0  0  0
    2.6780   13.8000   -1.6270 C   0  0  1  0  0  0  0  0  0  0  0  0
    2.1610   13.1570   -2.9520 C   0  0  0  0  0  0  0  0  0  0  0  0
    2.3710   12.8960   -0.3890 C   0  0  2  0  0  0  0  0  0  0  0  0
    2.9550   11.4740   -0.4580 C   0  0  0  0  0  0  0  0  0  0  0  0
    2.0640   10.4480   -1.0750 C   0  0  0  0  0  0  0  0  0  0  0  0
    0.7440   10.5890   -1.2950 C   0  0  0  0  0  0  0  0  0  0  0  0
   -0.0040   11.8410   -0.8210 C   0  0  1  0  0  0  0  0  0  0  0  0
   -1.3200   11.4220   -0.1130 C   0  0  0  0  0  0  0  0  0  0  0  0
   -2.1890   10.5180   -0.9820 C   0  0  0  0  0  0  0  0  0  0  0  0
   -1.4300    9.2560   -1.3850 C   0  0  2  0  0  0  0  0  0  0  0  0
   -1.1910    8.4680   -0.2150 O   0  0  0  0  0  0  0  0  0  0  0  0
   -0.0810    9.5540   -2.0980 C   0  0  0  0  0  0  0  0  0  0  0  0
   -0.3550   10.1380   -3.5060 C   0  0  0  0  0  0  0  0  0  0  0  0
    0.6480    8.2020   -2.3240 C   0  0  0  0  0  0  0  0  0  0  0  0
    0.8470   12.8750    0.0360 C   0  0  1  0  0  0  0  0  0  0  0  0
    0.8100   12.4740    1.5430 C   0  0  0  0  0  0  0  0  0  0  0  0
    0.1780   14.2970   -0.0610 C   0  0  0  0  0  0  0  0  0  0  0  0
    0.6120   15.1890   -1.2400 C   0  0  0  0  0  0  0  0  0  0  0  0
    2.1380   15.2500   -1.3490 C   0  0  2  0  0  0  0  0  0  0  0  0
    2.6860   15.9130   -0.0400 C   0  0  0  0  0  0  0  0  0  0  0  0
    3.3895   17.8663   -0.4662 H   0  0  0  0  0  0  0  0  0  0  0  0
    4.6897   17.4807   -1.6441 H   0  0  0  0  0  0  0  0  0  0  0  0
    3.9319   19.1093   -1.6441 H   0  0  0  0  0  0  0  0  0  0  0  0
    2.9598   17.9661   -3.4741 H   0  0  0  0  0  0  0  0  0  0  0  0
    0.9130   18.6569   -2.9671 H   0  0  0  0  0  0  0  0  0  0  0  0
    0.6658   17.1480   -1.9642 H   0  0  0  0  0  0  0  0  0  0  0  0
    1.2583   18.2000    0.0142 H   0  0  0  0  0  0  0  0  0  0  0  0
    2.0918   19.5584   -0.8504 H   0  0  0  0  0  0  0  0  0  0  0  0
    0.1423   20.0776   -1.8041 H   0  0  0  0  0  0  0  0  0  0  0  0
   -1.3284   18.1232    1.7542 H   0  0  0  0  0  0  0  0  0  0  0  0
   -2.2622   17.4252    0.3877 H   0  0  0  0  0  0  0  0  0  0  0  0
   -0.4681   17.3364    0.3877 H   0  0  0  0  0  0  0  0  0  0  0  0
   -3.1422   20.1445    0.4774 H   0  0  0  0  0  0  0  0  0  0  0  0
   -2.3983   20.7868   -1.0262 H   0  0  0  0  0  0  0  0  0  0  0  0
   -3.1642   19.1620   -1.0262 H   0  0  0  0  0  0  0  0  0  0  0  0
    2.0807   15.8708   -3.4436 H   0  0  0  0  0  0  0  0  0  0  0  0
    4.4008   15.2654   -3.7385 H   0  0  0  0  0  0  0  0  0  0  0  0
    4.8975   16.1514   -2.2807 H   0  0  0  0  0  0  0  0  0  0  0  0
    4.6325   13.3130   -2.4903 H   0  0  0  0  0  0  0  0  0  0  0  0
    4.7528   14.1831   -0.9634 H   0  0  0  0  0  0  0  0  0  0  0  0
    1.4879   12.3199   -2.7151 H   0  0  0  0  0  0  0  0  0  0  0  0
    1.6154   13.9118   -3.5374 H   0  0  0  0  0  0  0  0  0  0  0  0
    3.0153   12.7862   -3.5374 H   0  0  0  0  0  0  0  0  0  0  0  0
    2.9202   13.4053    0.4166 H   0  0  0  0  0  0  0  0  0  0  0  0
    3.8834   11.5161   -1.0465 H   0  0  0  0  0  0  0  0  0  0  0  0
    3.1079   11.1570    0.5842 H   0  0  0  0  0  0  0  0  0  0  0  0
    2.5255    9.4957   -1.3754 H   0  0  0  0  0  0  0  0  0  0  0  0
   -0.2356   12.4178   -1.7286 H   0  0  0  0  0  0  0  0  0  0  0  0
   -1.0668   10.8841    0.8125 H   0  0  0  0  0  0  0  0  0  0  0  0
   -1.8936   12.3373    0.0950 H   0  0  0  0  0  0  0  0  0  0  0  0
   -3.0887   10.2322   -0.4173 H   0  0  0  0  0  0  0  0  0  0  0  0
   -2.4660   11.0677   -1.8937 H   0  0  0  0  0  0  0  0  0  0  0  0
   -2.0548    8.7127   -2.1092 H   0  0  0  0  0  0  0  0  0  0  0  0
   -0.2290    8.3650   -0.1200 H   0  0  0  0  0  0  0  0  0  0  0  0
   -0.8203   11.1298   -3.4074 H   0  0  0  0  0  0  0  0  0  0  0  0
    0.5935   10.2310   -4.0553 H   0  0  0  0  0  0  0  0  0  0  0  0
   -1.0327    9.4680   -4.0553 H   0  0  0  0  0  0  0  0  0  0  0  0
    0.8918    7.7498   -1.3513 H   0  0  0  0  0  0  0  0  0  0  0  0
   -0.0062    7.5229   -2.8904 H   0  0  0  0  0  0  0  0  0  0  0  0
    1.5749    8.3754   -2.8904 H   0  0  0  0  0  0  0  0  0  0  0  0
    0.8934   13.3774    2.1650 H   0  0  0  0  0  0  0  0  0  0  0  0
   -0.1391   11.9634    1.7634 H   0  0  0  0  0  0  0  0  0  0  0  0
    1.6496   11.7984    1.7634 H   0  0  0  0  0  0  0  0  0  0  0  0
   -0.9092   14.1489   -0.1382 H   0  0  0  0  0  0  0  0  0  0  0  0
    0.5069   14.8325    0.8418 H   0  0  0  0  0  0  0  0  0  0  0  0
    0.2009   14.7768   -2.1733 H   0  0  0  0  0  0  0  0  0  0  0  0
    0.2319   16.2068   -1.0679 H   0  0  0  0  0  0  0  0  0  0  0  0
    2.2621   15.4001    0.8360 H   0  0  0  0  0  0  0  0  0  0  0  0
    3.7827   15.8300   -0.0183 H   0  0  0  0  0  0  0  0  0  0  0  0
    2.3981   16.9744   -0.0183 H   0  0  0  0  0  0  0  0  0  0  0  0
  1  2  1  0
  2  3  1  0
  3  4  1  0
  4  5  1  0
  5  6  1  0
  6  7  1  0
  7  8  1  0
  7  9  1  0
  2 10  1  0
 10 11  1  0
 11 12  1  0
 12 13  1  0
 13 14  1  6
 13 15  1  0
 15 16  1  0
 16 17  1  0
 17 18  2  0
 18 19  1  0
 19 20  1  0
 20 21  1  0
 21 22  1  0
 22 23  1  0
 22 24  1  0
 24 25  1  0
 24 26  1  0
 19 27  1  0
 27 28  1  1
 27 29  1  0
 29 30  1  0
 30 31  1  0
 31 32  1  1
  7  5  1  0
 31 10  1  0
 31 13  1  0
 27 15  1  0
 24 18  1  0
  1 33  1  0
  1 34  1  0
  1 35  1  0
  2 36  1  6
  3 37  1  0
  3 38  1  0
  4 39  1  0
  4 40  1  0
  5 41  1  6
  8 42  1  0
  8 43  1  0
  8 44  1  0
  9 45  1  0
  9 46  1  0
  9 47  1  0
 10 48  1  6
 11 49  1  0
 11 50  1  0
 12 51  1  0
 12 52  1  0
 14 53  1  0
 14 54  1  0
 14 55  1  0
 15 56  1  1
 16 57  1  0
 16 58  1  0
 17 59  1  0
 19 60  1  6
 20 61  1  0
 20 62  1  0
 21 63  1  0
 21 64  1  0
 22 65  1  6
 23 66  1  0
 25 67  1  0
 25 68  1  0
 25 69  1  0
 26 70  1  0
 26 71  1  0
 26 72  1  0
 28 73  1  0
 28 74  1  0
 28 75  1  0
 29 76  1  0
 29 77  1  0
 30 78  1  0
 30 79  1  0
 32 80  1  0
 32 81  1  0
 32 82  1  0
M  END
>  <meeko>  (6) 
{"is_sidechain": [false], "intermolecular_energy": 2.731, "internal_energy": -0.839}

$$$$
EPH_relaxed_0001_pdb2pqr_Repair_335_r2_0001_out
     RDKit          3D

 82 86  0  0  0  0  0  0  0  0999 V2000
   -0.6450    7.8380   -0.6040 C   0  0  0  0  0  0  0  0  0  0  0  0
   -1.0540    9.2050   -0.0490 C   0  0  2  0  0  0  0  0  0  0  0  0
   -2.3170    9.7580   -0.7400 C   0  0  0  0  0  0  0  0  0  0  0  0
   -3.6250    9.2950   -0.0930 C   0  0  0  0  0  0  0  0  0  0  0  0
   -4.0240    7.9290   -0.5660 C   0  0  2  0  0  0  0  0  0  0  0  0
   -4.0930    7.7850   -1.9900 O   0  0  0  0  0  0  0  0  0  0  0  0
   -5.3320    7.6400   -1.2770 C   0  0  0  0  0  0  0  0  0  0  0  0
   -6.3260    8.7240   -1.5560 C   0  0  0  0  0  0  0  0  0  0  0  0
   -5.8590    6.2390   -1.2640 C   0  0  0  0  0  0  0  0  0  0  0  0
    0.0970   10.1930   -0.2010 C   0  0  1  0  0  0  0  0  0  0  0  0
    1.4820    9.4940   -0.2410 C   0  0  0  0  0  0  0  0  0  0  0  0
    2.3690   10.3150   -1.2130 C   0  0  0  0  0  0  0  0  0  0  0  0
    1.5860   11.6300   -1.4380 C   0  0  1  0  0  0  0  0  0  0  0  0
    1.9150   12.5110   -0.1930 C   0  0  0  0  0  0  0  0  0  0  0  0
    1.8780   12.3870   -2.7750 C   0  0  2  0  0  0  0  0  0  0  0  0
    3.3260   12.8810   -2.9420 C   0  0  0  0  0  0  0  0  0  0  0  0
    3.5920   14.2580   -2.4310 C   0  0  0  0  0  0  0  0  0  0  0  0
    2.6550   15.1730   -2.1210 C   0  0  0  0  0  0  0  0  0  0  0  0
    1.1670   14.8910   -2.3700 C   0  0  1  0  0  0  0  0  0  0  0  0
    0.5150   16.1200   -3.0570 C   0  0  0  0  0  0  0  0  0  0  0  0
    0.7430   17.4130   -2.2800 C   0  0  0  0  0  0  0  0  0  0  0  0
    2.2340   17.6890   -2.1040 C   0  0  2  0  0  0  0  0  0  0  0  0
    2.8060   17.9630   -3.3870 O   0  0  0  0  0  0  0  0  0  0  0  0
    2.9980   16.5150   -1.4300 C   0  0  0  0  0  0  0  0  0  0  0  0
    2.5880   16.4140    0.0590 C   0  0  0  0  0  0  0  0  0  0  0  0
    4.5120   16.8630   -1.4410 C   0  0  0  0  0  0  0  0  0  0  0  0
    0.8350   13.5270   -3.1150 C   0  0  1  0  0  0  0  0  0  0  0  0
    0.8920   13.7370   -4.6590 C   0  0  0  0  0  0  0  0  0  0  0  0
   -0.6440   13.1050   -2.7790 C   0  0  0  0  0  0  0  0  0  0  0  0
   -0.8530   12.2570   -1.5090 C   0  0  0  0  0  0  0  0  0  0  0  0
    0.1170   11.0720   -1.4760 C   0  0  2  0  0  0  0  0  0  0  0  0
   -0.2050   10.1550   -2.7050 C   0  0  0  0  0  0  0  0  0  0  0  0
   -0.4393    7.1504    0.2296 H   0  0  0  0  0  0  0  0  0  0  0  0
   -1.4614    7.4333   -1.2202 H   0  0  0  0  0  0  0  0  0  0  0  0
    0.2595    7.9481   -1.2202 H   0  0  0  0  0  0  0  0  0  0  0  0
   -1.2919    9.0718    1.0167 H   0  0  0  0  0  0  0  0  0  0  0  0
   -2.2807   10.8568   -0.7022 H   0  0  0  0  0  0  0  0  0  0  0  0
   -2.3142    9.3733   -1.7705 H   0  0  0  0  0  0  0  0  0  0  0  0
   -3.4934    9.2700    0.9988 H   0  0  0  0  0  0  0  0  0  0  0  0
   -4.4180   10.0021   -0.3781 H   0  0  0  0  0  0  0  0  0  0  0  0
   -3.5365    7.4603    0.3016 H   0  0  0  0  0  0  0  0  0  0  0  0
   -6.7001    9.1320   -0.6054 H   0  0  0  0  0  0  0  0  0  0  0  0
   -5.8422    9.5253   -2.1338 H   0  0  0  0  0  0  0  0  0  0  0  0
   -7.1661    8.3113   -2.1338 H   0  0  0  0  0  0  0  0  0  0  0  0
   -5.9849    5.9043   -0.2238 H   0  0  0  0  0  0  0  0  0  0  0  0
   -6.8303    6.2078   -1.7793 H   0  0  0  0  0  0  0  0  0  0  0  0
   -5.1490    5.5754   -1.7793 H   0  0  0  0  0  0  0  0  0  0  0  0
   -0.0807   10.8206    0.6847 H   0  0  0  0  0  0  0  0  0  0  0  0
    1.9302    9.4833    0.7635 H   0  0  0  0  0  0  0  0  0  0  0  0
    1.3886    8.4507   -0.5769 H   0  0  0  0  0  0  0  0  0  0  0  0
    3.3516   10.5201   -0.7630 H   0  0  0  0  0  0  0  0  0  0  0  0
    2.5642    9.7792   -2.1536 H   0  0  0  0  0  0  0  0  0  0  0  0
    1.7028   11.9428    0.7247 H   0  0  0  0  0  0  0  0  0  0  0  0
    2.9785   12.7915   -0.2130 H   0  0  0  0  0  0  0  0  0  0  0  0
    1.2957   13.4199   -0.2130 H   0  0  0  0  0  0  0  0  0  0  0  0
    1.7435   11.5968   -3.5283 H   0  0  0  0  0  0  0  0  0  0  0  0
    3.9868   12.1852   -2.4043 H   0  0  0  0  0  0  0  0  0  0  0  0
    3.5127   12.9168   -4.0255 H   0  0  0  0  0  0  0  0  0  0  0  0
    4.6440   14.5499   -2.2963 H   0  0  0  0  0  0  0  0  0  0  0  0
    0.7166   14.7355   -1.3786 H   0  0  0  0  0  0  0  0  0  0  0  0
    0.9464   16.2320   -4.0627 H   0  0  0  0  0  0  0  0  0  0  0  0
   -0.5698   15.9426   -3.0997 H   0  0  0  0  0  0  0  0  0  0  0  0
    0.2848   18.2486   -2.8294 H   0  0  0  0  0  0  0  0  0  0  0  0
    0.2856   17.3096   -1.2850 H   0  0  0  0  0  0  0  0  0  0  0  0
    2.3334   18.5543   -1.4322 H   0  0  0  0  0  0  0  0  0  0  0  0
    3.7390   17.6910   -3.3560 H   0  0  0  0  0  0  0  0  0  0  0  0
    3.4597   16.6287    0.6947 H   0  0  0  0  0  0  0  0  0  0  0  0
    1.7916   17.1428    0.2703 H   0  0  0  0  0  0  0  0  0  0  0  0
    2.2213   15.3987    0.2703 H   0  0  0  0  0  0  0  0  0  0  0  0
    4.8765   16.9468   -0.4065 H   0  0  0  0  0  0  0  0  0  0  0  0
    5.0670   16.0690   -1.9621 H   0  0  0  0  0  0  0  0  0  0  0  0
    4.6646   17.8196   -1.9621 H   0  0  0  0  0  0  0  0  0  0  0  0
    1.1744   14.7775   -4.8773 H   0  0  0  0  0  0  0  0  0  0  0  0
    1.6377   13.0556   -5.0944 H   0  0  0  0  0  0  0  0  0  0  0  0
   -0.0959   13.5261   -5.0944 H   0  0  0  0  0  0  0  0  0  0  0  0
   -1.2352   14.0257   -2.6655 H   0  0  0  0  0  0  0  0  0  0  0  0
   -0.9550   12.4574   -3.6120 H   0  0  0  0  0  0  0  0  0  0  0  0
   -0.6821   12.8868   -0.6235 H   0  0  0  0  0  0  0  0  0  0  0  0
   -1.8820   11.8683   -1.5119 H   0  0  0  0  0  0  0  0  0  0  0  0
   -0.5499    9.1729   -2.3493 H   0  0  0  0  0  0  0  0  0  0  0  0
   -0.9930   10.6217   -3.3143 H   0  0  0  0  0  0  0  0  0  0  0  0
    0.7018   10.0266   -3.3143 H   0  0  0  0  0  0  0  0  0  0  0  0
  1  2  1  0
  2  3  1  0
  3  4  1  0
  4  5  1  0
  5  6  1  0
  6  7  1  0
  7  8  1  0
  7  9  1  0
  2 10  1  0
 10 11  1  0
 11 12  1  0
 12 13  1  0
 13 14  1  1
 13 15  1  0
 15 16  1  0
 16 17  1  0
 17 18  2  0
 18 19  1  0
 19 20  1  0
 20 21  1  0
 21 22  1  0
 22 23  1  0
 22 24  1  0
 24 25  1  0
 24 26  1  0
 19 27  1  0
 27 28  1  6
 27 29  1  0
 29 30  1  0
 30 31  1  0
 31 32  1  6
  7  5  1  0
 31 10  1  0
 31 13  1  0
 27 15  1  0
 24 18  1  0
  1 33  1  0
  1 34  1  0
  1 35  1  0
  2 36  1  1
  3 37  1  0
  3 38  1  0
  4 39  1  0
  4 40  1  0
  5 41  1  1
  8 42  1  0
  8 43  1  0
  8 44  1  0
  9 45  1  0
  9 46  1  0
  9 47  1  0
 10 48  1  1
 11 49  1  0
 11 50  1  0
 12 51  1  0
 12 52  1  0
 14 53  1  0
 14 54  1  0
 14 55  1  0
 15 56  1  6
 16 57  1  0
 16 58  1  0
 17 59  1  0
 19 60  1  1
 20 61  1  0
 20 62  1  0
 21 63  1  0
 21 64  1  0
 22 65  1  1
 23 66  1  0
 25 67  1  0
 25 68  1  0
 25 69  1  0
 26 70  1  0
 26 71  1  0
 26 72  1  0
 28 73  1  0
 28 74  1  0
 28 75  1  0
 29 76  1  0
 29 77  1  0
 30 78  1  0
 30 79  1  0
 32 80  1  0
 32 81  1  0
 32 82  1  0
M  END
>  <meeko>  (7) 
{"is_sidechain": [false], "intermolecular_energy": 2.731, "internal_energy": -0.839}

$$$$
EPH_relaxed_0001_pdb2pqr_Repair_335_r2_0001_out
     RDKit          3D

 82 86  0  0  0  0  0  0  0  0999 V2000
    0.4250    9.1190   -2.3220 C   0  0  0  0  0  0  0  0  0  0  0  0
    1.2140   10.2220   -3.0320 C   0  0  2  0  0  0  0  0  0  0  0  0
    2.7080   10.2040   -2.6510 C   0  0  0  0  0  0  0  0  0  0  0  0
    3.6450   10.5310   -3.8180 C   0  0  0  0  0  0  0  0  0  0  0  0
    5.0340   10.8370   -3.3450 C   0  0  2  0  0  0  0  0  0  0  0  0
    5.5840   12.0590   -3.8550 O   0  0  0  0  0  0  0  0  0  0  0  0
    6.2450   10.8480   -4.2590 C   0  0  0  0  0  0  0  0  0  0  0  0
    6.1230   10.5470   -5.7190 C   0  0  0  0  0  0  0  0  0  0  0  0
    7.6010   10.6700   -3.6510 C   0  0  0  0  0  0  0  0  0  0  0  0
    0.6100   11.5830   -2.7080 C   0  0  1  0  0  0  0  0  0  0  0  0
   -0.6550   11.4790   -1.8160 C   0  0  0  0  0  0  0  0  0  0  0  0
   -0.6440   12.7140   -0.8780 C   0  0  0  0  0  0  0  0  0  0  0  0
    0.4300   13.6500   -1.4790 C   0  0  1  0  0  0  0  0  0  0  0  0
   -0.2910   14.3880   -2.6510 C   0  0  0  0  0  0  0  0  0  0  0  0
    1.1010   14.6570   -0.4890 C   0  0  2  0  0  0  0  0  0  0  0  0
    0.1460   15.6840    0.1450 C   0  0  0  0  0  0  0  0  0  0  0  0
   -0.0070   16.9630   -0.6100 C   0  0  0  0  0  0  0  0  0  0  0  0
    0.8050   17.3930   -1.5930 C   0  0  0  0  0  0  0  0  0  0  0  0
    2.0680   16.6090   -1.9710 C   0  0  1  0  0  0  0  0  0  0  0  0
    3.2650   17.5870   -2.1020 C   0  0  0  0  0  0  0  0  0  0  0  0
    2.9800   18.7340   -3.0670 C   0  0  0  0  0  0  0  0  0  0  0  0
    1.7510   19.5250   -2.6260 C   0  0  2  0  0  0  0  0  0  0  0  0
    2.0480   20.1900   -1.3940 O   0  0  0  0  0  0  0  0  0  0  0  0
    0.4840   18.6420   -2.4500 C   0  0  0  0  0  0  0  0  0  0  0  0
   -0.0140   18.1650   -3.8370 C   0  0  0  0  0  0  0  0  0  0  0  0
   -0.6440   19.5360   -1.8680 C   0  0  0  0  0  0  0  0  0  0  0  0
    2.4040   15.3530   -1.0570 C   0  0  1  0  0  0  0  0  0  0  0  0
    3.2420   15.8030    0.1790 C   0  0  0  0  0  0  0  0  0  0  0  0
    3.3110   14.3540   -1.8680 C   0  0  0  0  0  0  0  0  0  0  0  0
    2.5870   13.3060   -2.7350 C   0  0  0  0  0  0  0  0  0  0  0  0
    1.4980   12.5890   -1.9320 C   0  0  2  0  0  0  0  0  0  0  0  0
    2.1960   11.8190   -0.7600 C   0  0  0  0  0  0  0  0  0  0  0  0
    0.5159    9.2460   -1.2331 H   0  0  0  0  0  0  0  0  0  0  0  0
   -0.6344    9.1817   -2.6113 H   0  0  0  0  0  0  0  0  0  0  0  0
    0.8266    8.1366   -2.6113 H   0  0  0  0  0  0  0  0  0  0  0  0
    1.1471   10.0335   -4.1137 H   0  0  0  0  0  0  0  0  0  0  0  0
    2.8724   10.9455   -1.8553 H   0  0  0  0  0  0  0  0  0  0  0  0
    2.9446    9.1801   -2.3259 H   0  0  0  0  0  0  0  0  0  0  0  0
    3.6822    9.6672   -4.4981 H   0  0  0  0  0  0  0  0  0  0  0  0
    3.2541   11.4213   -4.3324 H   0  0  0  0  0  0  0  0  0  0  0  0
    4.8412   10.3415   -2.3820 H   0  0  0  0  0  0  0  0  0  0  0  0
    5.7128    9.5350   -5.8517 H   0  0  0  0  0  0  0  0  0  0  0  0
    5.4509   11.2797   -6.1895 H   0  0  0  0  0  0  0  0  0  0  0  0
    7.1156   10.6049   -6.1895 H   0  0  0  0  0  0  0  0  0  0  0  0
    7.5155   10.6812   -2.5544 H   0  0  0  0  0  0  0  0  0  0  0  0
    8.0252    9.7085   -3.9759 H   0  0  0  0  0  0  0  0  0  0  0  0
    8.2590   11.4895   -3.9759 H   0  0  0  0  0  0  0  0  0  0  0  0
    0.4281   11.9510   -3.7285 H   0  0  0  0  0  0  0  0  0  0  0  0
   -1.5605   11.4858   -2.4406 H   0  0  0  0  0  0  0  0  0  0  0  0
   -0.6543   10.5435   -1.2373 H   0  0  0  0  0  0  0  0  0  0  0  0
   -1.6280   13.2056   -0.8715 H   0  0  0  0  0  0  0  0  0  0  0  0
   -0.4252   12.4436    0.1656 H   0  0  0  0  0  0  0  0  0  0  0  0
   -1.0043   15.1181   -2.2409 H   0  0  0  0  0  0  0  0  0  0  0  0
    0.4541   14.9105   -3.2689 H   0  0  0  0  0  0  0  0  0  0  0  0
   -0.8308   13.6553   -3.2689 H   0  0  0  0  0  0  0  0  0  0  0  0
    1.4219   14.0007    0.3334 H   0  0  0  0  0  0  0  0  0  0  0  0
   -0.8469   15.2181    0.2293 H   0  0  0  0  0  0  0  0  0  0  0  0
    0.5895   15.9541    1.1147 H   0  0  0  0  0  0  0  0  0  0  0  0
   -0.8556   17.6086   -0.3397 H   0  0  0  0  0  0  0  0  0  0  0  0
    1.8570   16.1445   -2.9455 H   0  0  0  0  0  0  0  0  0  0  0  0
    3.4870   18.0075   -1.1101 H   0  0  0  0  0  0  0  0  0  0  0  0
    4.1183   17.0190   -2.5010 H   0  0  0  0  0  0  0  0  0  0  0  0
    3.8502   19.4063   -3.0942 H   0  0  0  0  0  0  0  0  0  0  0  0
    2.7876   18.3137   -4.0651 H   0  0  0  0  0  0  0  0  0  0  0  0
    1.5214   20.2478   -3.4228 H   0  0  0  0  0  0  0  0  0  0  0  0
    2.8970   20.6520   -1.5060 H   0  0  0  0  0  0  0  0  0  0  0  0
   -0.8025   17.4097   -3.7036 H   0  0  0  0  0  0  0  0  0  0  0  0
   -0.4178   19.0219   -4.3962 H   0  0  0  0  0  0  0  0  0  0  0  0
    0.8247   17.7247   -4.3962 H   0  0  0  0  0  0  0  0  0  0  0  0
   -0.6057   19.5057   -0.7691 H   0  0  0  0  0  0  0  0  0  0  0  0
   -0.5049   20.5718   -2.2113 H   0  0  0  0  0  0  0  0  0  0  0  0
   -1.6206   19.1640   -2.2113 H   0  0  0  0  0  0  0  0  0  0  0  0
    2.7149   15.5200    1.1021 H   0  0  0  0  0  0  0  0  0  0  0  0
    4.2260   15.3119    0.1533 H   0  0  0  0  0  0  0  0  0  0  0  0
    3.3762   16.8945    0.1533 H   0  0  0  0  0  0  0  0  0  0  0  0
    3.9516   14.9513   -2.5335 H   0  0  0  0  0  0  0  0  0  0  0  0
    3.8522   13.7734   -1.1064 H   0  0  0  0  0  0  0  0  0  0  0  0
    2.1258   13.8091   -3.5977 H   0  0  0  0  0  0  0  0  0  0  0  0
    3.3225   12.5608   -3.0722 H   0  0  0  0  0  0  0  0  0  0  0  0
    1.8382   12.2137    0.2024 H   0  0  0  0  0  0  0  0  0  0  0  0
    1.9545   10.7481   -0.8297 H   0  0  0  0  0  0  0  0  0  0  0  0
    3.2854   11.9545   -0.8297 H   0  0  0  0  0  0  0  0  0  0  0  0
  1  2  1  0
  2  3  1  0
  3  4  1  0
  4  5  1  0
  5  6  1  0
  6  7  1  0
  7  8  1  0
  7  9  1  0
  2 10  1  0
 10 11  1  0
 11 12  1  0
 12 13  1  0
 13 14  1  6
 13 15  1  0
 15 16  1  0
 16 17  1  0
 17 18  2  0
 18 19  1  0
 19 20  1  0
 20 21  1  0
 21 22  1  0
 22 23  1  0
 22 24  1  0
 24 25  1  0
 24 26  1  0
 19 27  1  0
 27 28  1  1
 27 29  1  0
 29 30  1  0
 30 31  1  0
 31 32  1  1
  7  5  1  0
 31 10  1  0
 31 13  1  0
 27 15  1  0
 24 18  1  0
  1 33  1  0
  1 34  1  0
  1 35  1  0
  2 36  1  6
  3 37  1  0
  3 38  1  0
  4 39  1  0
  4 40  1  0
  5 41  1  1
  8 42  1  0
  8 43  1  0
  8 44  1  0
  9 45  1  0
  9 46  1  0
  9 47  1  0
 10 48  1  6
 11 49  1  0
 11 50  1  0
 12 51  1  0
 12 52  1  0
 14 53  1  0
 14 54  1  0
 14 55  1  0
 15 56  1  1
 16 57  1  0
 16 58  1  0
 17 59  1  0
 19 60  1  6
 20 61  1  0
 20 62  1  0
 21 63  1  0
 21 64  1  0
 22 65  1  6
 23 66  1  0
 25 67  1  0
 25 68  1  0
 25 69  1  0
 26 70  1  0
 26 71  1  0
 26 72  1  0
 28 73  1  0
 28 74  1  0
 28 75  1  0
 29 76  1  0
 29 77  1  0
 30 78  1  0
 30 79  1  0
 32 80  1  0
 32 81  1  0
 32 82  1  0
M  END
>  <meeko>  (8) 
{"is_sidechain": [false], "intermolecular_energy": 2.731, "internal_energy": -0.839}

$$$$
EPH_relaxed_0001_pdb2pqr_Repair_335_r2_0001_out
     RDKit          3D

 82 86  0  0  0  0  0  0  0  0999 V2000
    4.5610   17.6050   -2.2210 C   0  0  0  0  0  0  0  0  0  0  0  0
    3.1100   17.1910   -2.4780 C   0  0  2  0  0  0  0  0  0  0  0  0
    2.1500   17.7420   -1.4040 C   0  0  0  0  0  0  0  0  0  0  0  0
    2.6120   19.0640   -0.7860 C   0  0  0  0  0  0  0  0  0  0  0  0
    2.8180   18.9420    0.6940 C   0  0  2  0  0  0  0  0  0  0  0  0
    2.8880   20.1920    1.3930 O   0  0  0  0  0  0  0  0  0  0  0  0
    4.0820   19.3930    1.4020 C   0  0  0  0  0  0  0  0  0  0  0  0
    5.2250   19.9990    0.6500 C   0  0  0  0  0  0  0  0  0  0  0  0
    4.4020   18.8020    2.7400 C   0  0  0  0  0  0  0  0  0  0  0  0
    3.0060   15.6710   -2.5380 C   0  0  1  0  0  0  0  0  0  0  0  0
    4.3910   14.9820   -2.6640 C   0  0  0  0  0  0  0  0  0  0  0  0
    4.3050   13.6550   -1.8680 C   0  0  0  0  0  0  0  0  0  0  0  0
    2.7950   13.4630   -1.5930 C   0  0  1  0  0  0  0  0  0  0  0  0
    2.2210   12.8560   -2.9120 C   0  0  0  0  0  0  0  0  0  0  0  0
    2.4250   12.5920   -0.3480 C   0  0  2  0  0  0  0  0  0  0  0  0
    2.8940   11.1280   -0.4120 C   0  0  0  0  0  0  0  0  0  0  0  0
    1.9210   10.1720   -1.0190 C   0  0  0  0  0  0  0  0  0  0  0  0
    0.6150   10.4170   -1.2330 C   0  0  0  0  0  0  0  0  0  0  0  0
   -0.0290   11.7270   -0.7620 C   0  0  1  0  0  0  0  0  0  0  0  0
   -1.3700   11.4160   -0.0450 C   0  0  0  0  0  0  0  0  0  0  0  0
   -2.3120   10.5790   -0.9040 C   0  0  0  0  0  0  0  0  0  0  0  0
   -1.6570    9.2590   -1.3040 C   0  0  2  0  0  0  0  0  0  0  0  0
   -1.4750    8.4610   -0.1310 O   0  0  0  0  0  0  0  0  0  0  0  0
   -0.2940    9.4460   -2.0260 C   0  0  0  0  0  0  0  0  0  0  0  0
   -0.5280   10.0420   -3.4360 C   0  0  0  0  0  0  0  0  0  0  0  0
    0.3250    8.0390   -2.2480 C   0  0  0  0  0  0  0  0  0  0  0  0
    0.9060   12.6940    0.0850 C   0  0  1  0  0  0  0  0  0  0  0  0
    0.8460   12.3040    1.5940 C   0  0  0  0  0  0  0  0  0  0  0  0
    0.3520   14.1640   -0.0160 C   0  0  0  0  0  0  0  0  0  0  0  0
    0.8470   15.0130   -1.2020 C   0  0  0  0  0  0  0  0  0  0  0  0
    2.3730   14.9520   -1.3200 C   0  0  2  0  0  0  0  0  0  0  0  0
    2.9790   15.5770   -0.0170 C   0  0  0  0  0  0  0  0  0  0  0  0
    4.7411   17.6564   -1.1371 H   0  0  0  0  0  0  0  0  0  0  0  0
    5.2387   16.8644   -2.6706 H   0  0  0  0  0  0  0  0  0  0  0  0
    4.7459   18.5917   -2.6706 H   0  0  0  0  0  0  0  0  0  0  0  0
    2.8088   17.6231   -3.4437 H   0  0  0  0  0  0  0  0  0  0  0  0
    1.1649   17.9006   -1.8671 H   0  0  0  0  0  0  0  0  0  0  0  0
    2.1173   17.0013   -0.5915 H   0  0  0  0  0  0  0  0  0  0  0  0
    3.5609   19.3642   -1.2545 H   0  0  0  0  0  0  0  0  0  0  0  0
    1.8298   19.8170   -0.9625 H   0  0  0  0  0  0  0  0  0  0  0  0
    2.2554   17.9971    0.7190 H   0  0  0  0  0  0  0  0  0  0  0  0
    5.9655   20.3916    1.3624 H   0  0  0  0  0  0  0  0  0  0  0  0
    5.6956   19.2319    0.0174 H   0  0  0  0  0  0  0  0  0  0  0  0
    4.8541   20.8189    0.0174 H   0  0  0  0  0  0  0  0  0  0  0  0
    4.0391   19.4722    3.5332 H   0  0  0  0  0  0  0  0  0  0  0  0
    3.9112   17.8222    2.8349 H   0  0  0  0  0  0  0  0  0  0  0  0
    5.4908   18.6774    2.8349 H   0  0  0  0  0  0  0  0  0  0  0  0
    2.3536   15.5659   -3.4174 H   0  0  0  0  0  0  0  0  0  0  0  0
    4.6167   14.7758   -3.7207 H   0  0  0  0  0  0  0  0  0  0  0  0
    5.1902   15.6273   -2.2704 H   0  0  0  0  0  0  0  0  0  0  0  0
    4.7009   12.8188   -2.4630 H   0  0  0  0  0  0  0  0  0  0  0  0
    4.8975   13.6847   -0.9417 H   0  0  0  0  0  0  0  0  0  0  0  0
    1.4842   12.0769   -2.6668 H   0  0  0  0  0  0  0  0  0  0  0  0
    1.7346   13.6488   -3.4992 H   0  0  0  0  0  0  0  0  0  0  0  0
    3.0398   12.4146   -3.4992 H   0  0  0  0  0  0  0  0  0  0  0  0
    3.0179   13.0599    0.4517 H   0  0  0  0  0  0  0  0  0  0  0  0
    3.8196   11.0934   -1.0054 H   0  0  0  0  0  0  0  0  0  0  0  0
    3.0267   10.8054    0.6312 H   0  0  0  0  0  0  0  0  0  0  0  0
    2.3037    9.1845   -1.3163 H   0  0  0  0  0  0  0  0  0  0  0  0
   -0.2194   12.3166   -1.6709 H   0  0  0  0  0  0  0  0  0  0  0  0
   -1.1546   10.8646    0.8821 H   0  0  0  0  0  0  0  0  0  0  0  0
   -1.8688   12.3746    0.1607 H   0  0  0  0  0  0  0  0  0  0  0  0
   -3.2281   10.3679   -0.3329 H   0  0  0  0  0  0  0  0  0  0  0  0
   -2.5500   11.1440   -1.8173 H   0  0  0  0  0  0  0  0  0  0  0  0
   -2.3263    8.7625   -2.0220 H   0  0  0  0  0  0  0  0  0  0  0  0
   -2.1910    7.8030   -0.1090 H   0  0  0  0  0  0  0  0  0  0  0  0
   -0.9285   11.0621   -3.3410 H   0  0  0  0  0  0  0  0  0  0  0  0
    0.4252   10.0719   -3.9843 H   0  0  0  0  0  0  0  0  0  0  0  0
   -1.2469    9.4154   -3.9843 H   0  0  0  0  0  0  0  0  0  0  0  0
    0.5308    7.5711   -1.2740 H   0  0  0  0  0  0  0  0  0  0  0  0
   -0.3808    7.4130   -2.8136 H   0  0  0  0  0  0  0  0  0  0  0  0
    1.2634    8.1363   -2.8136 H   0  0  0  0  0  0  0  0  0  0  0  0
    0.9845   13.2040    2.2111 H   0  0  0  0  0  0  0  0  0  0  0  0
   -0.1321   11.8530    1.8176 H   0  0  0  0  0  0  0  0  0  0  0  0
    1.6433   11.5799    1.8176 H   0  0  0  0  0  0  0  0  0  0  0  0
   -0.7441   14.1025   -0.0854 H   0  0  0  0  0  0  0  0  0  0  0  0
    0.7292   14.6759    0.8816 H   0  0  0  0  0  0  0  0  0  0  0  0
    0.3986   14.6302   -2.1306 H   0  0  0  0  0  0  0  0  0  0  0  0
    0.5495   16.0585   -1.0336 H   0  0  0  0  0  0  0  0  0  0  0  0
    2.5205   15.1041    0.8640 H   0  0  0  0  0  0  0  0  0  0  0  0
    4.0657   15.4076   -0.0002 H   0  0  0  0  0  0  0  0  0  0  0  0
    2.7761   16.6580   -0.0002 H   0  0  0  0  0  0  0  0  0  0  0  0
  1  2  1  0
  2  3  1  0
  3  4  1  0
  4  5  1  0
  5  6  1  0
  6  7  1  0
  7  8  1  0
  7  9  1  0
  2 10  1  0
 10 11  1  0
 11 12  1  0
 12 13  1  0
 13 14  1  6
 13 15  1  0
 15 16  1  0
 16 17  1  0
 17 18  2  0
 18 19  1  0
 19 20  1  0
 20 21  1  0
 21 22  1  0
 22 23  1  0
 22 24  1  0
 24 25  1  0
 24 26  1  0
 19 27  1  0
 27 28  1  1
 27 29  1  0
 29 30  1  0
 30 31  1  0
 31 32  1  1
  7  5  1  0
 31 10  1  0
 31 13  1  0
 27 15  1  0
 24 18  1  0
  1 33  1  0
  1 34  1  0
  1 35  1  0
  2 36  1  6
  3 37  1  0
  3 38  1  0
  4 39  1  0
  4 40  1  0
  5 41  1  1
  8 42  1  0
  8 43  1  0
  8 44  1  0
  9 45  1  0
  9 46  1  0
  9 47  1  0
 10 48  1  6
 11 49  1  0
 11 50  1  0
 12 51  1  0
 12 52  1  0
 14 53  1  0
 14 54  1  0
 14 55  1  0
 15 56  1  1
 16 57  1  0
 16 58  1  0
 17 59  1  0
 19 60  1  6
 20 61  1  0
 20 62  1  0
 21 63  1  0
 21 64  1  0
 22 65  1  6
 23 66  1  0
 25 67  1  0
 25 68  1  0
 25 69  1  0
 26 70  1  0
 26 71  1  0
 26 72  1  0
 28 73  1  0
 28 74  1  0
 28 75  1  0
 29 76  1  0
 29 77  1  0
 30 78  1  0
 30 79  1  0
 32 80  1  0
 32 81  1  0
 32 82  1  0
M  END
>  <meeko>  (9) 
{"is_sidechain": [false], "intermolecular_energy": 2.731, "internal_energy": -0.839}

$$$$
EPH_relaxed_0001_pdb2pqr_Repair_335_r2_0001_out
     RDKit          3D

 82 86  0  0  0  0  0  0  0  0999 V2000
   -2.5620    7.5700   -3.0590 C   0  0  0  0  0  0  0  0  0  0  0  0
   -2.8790    7.8670   -1.5910 C   0  0  2  0  0  0  0  0  0  0  0  0
   -4.3950    7.8480   -1.3090 C   0  0  0  0  0  0  0  0  0  0  0  0
   -5.1160    6.6350   -1.9040 C   0  0  0  0  0  0  0  0  0  0  0  0
   -6.3160    7.0420   -2.7050 C   0  0  2  0  0  0  0  0  0  0  0  0
   -6.8950    8.2960   -2.3220 O   0  0  0  0  0  0  0  0  0  0  0  0
   -7.7160    7.1330   -2.1270 C   0  0  0  0  0  0  0  0  0  0  0  0
   -7.9890    6.8150   -0.6900 C   0  0  0  0  0  0  0  0  0  0  0  0
   -8.8820    7.0560   -3.0620 C   0  0  0  0  0  0  0  0  0  0  0  0
   -2.2930    9.2170   -1.1960 C   0  0  1  0  0  0  0  0  0  0  0  0
   -2.8110    9.7130    0.1810 C   0  0  0  0  0  0  0  0  0  0  0  0
   -1.6380   10.4720    0.8530 C   0  0  0  0  0  0  0  0  0  0  0  0
   -0.6050   10.6750   -0.2800 C   0  0  1  0  0  0  0  0  0  0  0  0
   -1.1190   11.9170   -1.0740 C   0  0  0  0  0  0  0  0  0  0  0  0
    0.8840   10.8510    0.1660 C   0  0  2  0  0  0  0  0  0  0  0  0
    1.1630   12.0890    1.0350 C   0  0  0  0  0  0  0  0  0  0  0  0
    1.5350   13.3250    0.2850 C   0  0  0  0  0  0  0  0  0  0  0  0
    1.9190   13.3710   -1.0040 C   0  0  0  0  0  0  0  0  0  0  0  0
    2.1030   12.0840   -1.8180 C   0  0  1  0  0  0  0  0  0  0  0  0
    3.4420   12.1500   -2.5980 C   0  0  0  0  0  0  0  0  0  0  0  0
    3.5570   13.4050   -3.4580 C   0  0  0  0  0  0  0  0  0  0  0  0
    3.4270   14.6650   -2.6040 C   0  0  2  0  0  0  0  0  0  0  0  0
    4.5600   14.7500   -1.7340 O   0  0  0  0  0  0  0  0  0  0  0  0
    2.1190   14.7050   -1.7660 C   0  0  0  0  0  0  0  0  0  0  0  0
    0.9060   14.9160   -2.7040 C   0  0  0  0  0  0  0  0  0  0  0  0
    2.1800   15.9540   -0.8460 C   0  0  0  0  0  0  0  0  0  0  0  0
    1.9320   10.7240   -1.0130 C   0  0  1  0  0  0  0  0  0  0  0  0
    3.2890   10.3190   -0.3600 C   0  0  0  0  0  0  0  0  0  0  0  0
    1.5630    9.5720   -2.0210 C   0  0  0  0  0  0  0  0  0  0  0  0
    0.0670    9.3710   -2.3290 C   0  0  0  0  0  0  0  0  0  0  0  0
   -0.7550    9.3060   -1.0370 C   0  0  2  0  0  0  0  0  0  0  0  0
   -0.2750    8.0530   -0.2280 C   0  0  0  0  0  0  0  0  0  0  0  0
   -1.7604    6.8189   -3.1163 H   0  0  0  0  0  0  0  0  0  0  0  0
   -3.4630    7.1834   -3.5577 H   0  0  0  0  0  0  0  0  0  0  0  0
   -2.2349    8.4943   -3.5577 H   0  0  0  0  0  0  0  0  0  0  0  0
   -2.4206    7.0711   -0.9857 H   0  0  0  0  0  0  0  0  0  0  0  0
   -4.5456    7.8416   -0.2194 H   0  0  0  0  0  0  0  0  0  0  0  0
   -4.8223    8.7423   -1.7862 H   0  0  0  0  0  0  0  0  0  0  0  0
   -4.4185    6.0910   -2.5579 H   0  0  0  0  0  0  0  0  0  0  0  0
   -5.4569    5.9976   -1.0748 H   0  0  0  0  0  0  0  0  0  0  0  0
   -5.9181    6.5403   -3.5994 H   0  0  0  0  0  0  0  0  0  0  0  0
   -7.4074    7.4925   -0.0476 H   0  0  0  0  0  0  0  0  0  0  0  0
   -9.0616    6.9444   -0.4832 H   0  0  0  0  0  0  0  0  0  0  0  0
   -7.6987    5.7744   -0.4832 H   0  0  0  0  0  0  0  0  0  0  0  0
   -9.8142    6.9944   -2.4813 H   0  0  0  0  0  0  0  0  0  0  0  0
   -8.9036    7.9547   -3.6960 H   0  0  0  0  0  0  0  0  0  0  0  0
   -8.7852    6.1623   -3.6960 H   0  0  0  0  0  0  0  0  0  0  0  0
   -2.6175    9.8180   -2.0583 H   0  0  0  0  0  0  0  0  0  0  0  0
   -3.6688   10.3875    0.0425 H   0  0  0  0  0  0  0  0  0  0  0  0
   -3.1449    8.8704    0.8043 H   0  0  0  0  0  0  0  0  0  0  0  0
   -1.9776   11.4412    1.2472 H   0  0  0  0  0  0  0  0  0  0  0  0
   -1.2180    9.9196    1.7065 H   0  0  0  0  0  0  0  0  0  0  0  0
   -1.4414   12.6961   -0.3675 H   0  0  0  0  0  0  0  0  0  0  0  0
   -0.3090   12.3085   -1.7070 H   0  0  0  0  0  0  0  0  0  0  0  0
   -1.9688   11.6216   -1.7070 H   0  0  0  0  0  0  0  0  0  0  0  0
    1.0374    9.9837    0.8250 H   0  0  0  0  0  0  0  0  0  0  0  0
    0.2561   12.3058    1.6186 H   0  0  0  0  0  0  0  0  0  0  0  0
    2.0359   11.8351    1.6543 H   0  0  0  0  0  0  0  0  0  0  0  0
    1.4916   14.2784    0.8320 H   0  0  0  0  0  0  0  0  0  0  0  0
    1.2612   12.0495   -2.5253 H   0  0  0  0  0  0  0  0  0  0  0  0
    4.2716   12.1402   -1.8758 H   0  0  0  0  0  0  0  0  0  0  0  0
    3.4800   11.2801   -3.2701 H   0  0  0  0  0  0  0  0  0  0  0  0
    4.5360   13.4094   -3.9596 H   0  0  0  0  0  0  0  0  0  0  0  0
    2.7450   13.3981   -4.2000 H   0  0  0  0  0  0  0  0  0  0  0  0
    3.3862   15.5253   -3.2882 H   0  0  0  0  0  0  0  0  0  0  0  0
    5.3570   14.6100   -2.2730 H   0  0  0  0  0  0  0  0  0  0  0  0
   -0.0005   15.0737   -2.1012 H   0  0  0  0  0  0  0  0  0  0  0  0
    1.0822   15.7970   -3.3387 H   0  0  0  0  0  0  0  0  0  0  0  0
    0.7743   14.0273   -3.3387 H   0  0  0  0  0  0  0  0  0  0  0  0
    2.1644   15.6351    0.2067 H   0  0  0  0  0  0  0  0  0  0  0  0
    3.1065   16.5121   -1.0464 H   0  0  0  0  0  0  0  0  0  0  0  0
    1.3123   16.5997   -1.0464 H   0  0  0  0  0  0  0  0  0  0  0  0
    3.1919   10.3480    0.7353 H   0  0  0  0  0  0  0  0  0  0  0  0
    3.5593    9.3010   -0.6774 H   0  0  0  0  0  0  0  0  0  0  0  0
    4.0730   11.0223   -0.6774 H   0  0  0  0  0  0  0  0  0  0  0  0
    2.0727    9.7861   -2.9720 H   0  0  0  0  0  0  0  0  0  0  0  0
    1.8821    8.6431   -1.5257 H   0  0  0  0  0  0  0  0  0  0  0  0
   -0.2906   10.2121   -2.9411 H   0  0  0  0  0  0  0  0  0  0  0  0
   -0.0552    8.4214   -2.8707 H   0  0  0  0  0  0  0  0  0  0  0  0
   -0.3542    8.2598    0.8495 H   0  0  0  0  0  0  0  0  0  0  0  0
   -0.9056    7.1885   -0.4828 H   0  0  0  0  0  0  0  0  0  0  0  0
    0.7718    7.8310   -0.4828 H   0  0  0  0  0  0  0  0  0  0  0  0
  1  2  1  0
  2  3  1  0
  3  4  1  0
  4  5  1  0
  5  6  1  0
  6  7  1  0
  7  8  1  0
  7  9  1  0
  2 10  1  0
 10 11  1  0
 11 12  1  0
 12 13  1  0
 13 14  1  6
 13 15  1  0
 15 16  1  0
 16 17  1  0
 17 18  2  0
 18 19  1  0
 19 20  1  0
 20 21  1  0
 21 22  1  0
 22 23  1  0
 22 24  1  0
 24 25  1  0
 24 26  1  0
 19 27  1  0
 27 28  1  1
 27 29  1  0
 29 30  1  0
 30 31  1  0
 31 32  1  1
  7  5  1  0
 31 10  1  0
 31 13  1  0
 27 15  1  0
 24 18  1  0
  1 33  1  0
  1 34  1  0
  1 35  1  0
  2 36  1  1
  3 37  1  0
  3 38  1  0
  4 39  1  0
  4 40  1  0
  5 41  1  6
  8 42  1  0
  8 43  1  0
  8 44  1  0
  9 45  1  0
  9 46  1  0
  9 47  1  0
 10 48  1  6
 11 49  1  0
 11 50  1  0
 12 51  1  0
 12 52  1  0
 14 53  1  0
 14 54  1  0
 14 55  1  0
 15 56  1  1
 16 57  1  0
 16 58  1  0
 17 59  1  0
 19 60  1  6
 20 61  1  0
 20 62  1  0
 21 63  1  0
 21 64  1  0
 22 65  1  6
 23 66  1  0
 25 67  1  0
 25 68  1  0
 25 69  1  0
 26 70  1  0
 26 71  1  0
 26 72  1  0
 28 73  1  0
 28 74  1  0
 28 75  1  0
 29 76  1  0
 29 77  1  0
 30 78  1  0
 30 79  1  0
 32 80  1  0
 32 81  1  0
 32 82  1  0
M  END
>  <meeko>  (10) 
{"is_sidechain": [false], "intermolecular_energy": 2.731, "internal_energy": -0.839}

$$$$
EPH_relaxed_0001_pdb2pqr_Repair_335_r2_0001_out
     RDKit          3D

 82 86  0  0  0  0  0  0  0  0999 V2000
    0.2850   17.7080   -0.0460 C   0  0  0  0  0  0  0  0  0  0  0  0
    1.0790   17.2150   -1.2590 C   0  0  2  0  0  0  0  0  0  0  0  0
    1.1260   18.2640   -2.3880 C   0  0  0  0  0  0  0  0  0  0  0  0
    2.4010   19.1110   -2.3880 C   0  0  0  0  0  0  0  0  0  0  0  0
    3.5080   18.4460   -3.1480 C   0  0  2  0  0  0  0  0  0  0  0  0
    3.6430   17.0400   -2.9020 O   0  0  0  0  0  0  0  0  0  0  0  0
    4.7450   17.8640   -2.4880 C   0  0  0  0  0  0  0  0  0  0  0  0
    4.9380   17.9220   -1.0050 C   0  0  0  0  0  0  0  0  0  0  0  0
    5.9790   17.6810   -3.3160 C   0  0  0  0  0  0  0  0  0  0  0  0
    0.4770   15.9150   -1.7800 C   0  0  1  0  0  0  0  0  0  0  0  0
    0.1020   15.9910   -3.2840 C   0  0  0  0  0  0  0  0  0  0  0  0
    0.3680   14.5860   -3.8830 C   0  0  0  0  0  0  0  0  0  0  0  0
    0.5660   13.6690   -2.6540 C   0  0  1  0  0  0  0  0  0  0  0  0
   -0.8780   13.3280   -2.1710 C   0  0  0  0  0  0  0  0  0  0  0  0
    1.4180   12.3780   -2.8850 C   0  0  2  0  0  0  0  0  0  0  0  0
    0.8280   11.3800   -3.8960 C   0  0  0  0  0  0  0  0  0  0  0  0
   -0.0750   10.3420   -3.3160 C   0  0  0  0  0  0  0  0  0  0  0  0
   -0.1770   10.0370   -2.0090 C   0  0  0  0  0  0  0  0  0  0  0  0
    0.7380   10.6990   -0.9720 C   0  0  1  0  0  0  0  0  0  0  0  0
    1.3040    9.6170   -0.0150 C   0  0  0  0  0  0  0  0  0  0  0  0
    0.2080    8.7730    0.6280 C   0  0  0  0  0  0  0  0  0  0  0  0
   -0.6440    8.0840   -0.4350 C   0  0  2  0  0  0  0  0  0  0  0  0
    0.1620    7.1210   -1.1200 O   0  0  0  0  0  0  0  0  0  0  0  0
   -1.2600    9.0750   -1.4620 C   0  0  0  0  0  0  0  0  0  0  0  0
   -2.3600    9.9210   -0.7740 C   0  0  0  0  0  0  0  0  0  0  0  0
   -1.9770    8.2410   -2.5580 C   0  0  0  0  0  0  0  0  0  0  0  0
    1.8690   11.6520   -1.5530 C   0  0  1  0  0  0  0  0  0  0  0  0
    3.1370   10.8180   -1.9080 C   0  0  0  0  0  0  0  0  0  0  0  0
    2.3070   12.6710   -0.4350 C   0  0  0  0  0  0  0  0  0  0  0  0
    1.5020   13.9810   -0.3350 C   0  0  0  0  0  0  0  0  0  0  0  0
    1.3600   14.6430   -1.7090 C   0  0  2  0  0  0  0  0  0  0  0  0
    2.7960   15.0180   -2.2100 C   0  0  0  0  0  0  0  0  0  0  0  0
    0.7928   17.3927    0.8774 H   0  0  0  0  0  0  0  0  0  0  0  0
    0.2197   18.8058   -0.0720 H   0  0  0  0  0  0  0  0  0  0  0  0
   -0.7279   17.2797   -0.0720 H   0  0  0  0  0  0  0  0  0  0  0  0
    2.1135   17.0398   -0.9287 H   0  0  0  0  0  0  0  0  0  0  0  0
    1.0575   17.7395   -3.3525 H   0  0  0  0  0  0  0  0  0  0  0  0
    0.2832   18.9515   -2.2234 H   0  0  0  0  0  0  0  0  0  0  0  0
    2.1830   20.0835   -2.8536 H   0  0  0  0  0  0  0  0  0  0  0  0
    2.7286   19.2377   -1.3456 H   0  0  0  0  0  0  0  0  0  0  0  0
    3.3793   19.1419   -3.9901 H   0  0  0  0  0  0  0  0  0  0  0  0
    4.0011   17.6404   -0.5020 H   0  0  0  0  0  0  0  0  0  0  0  0
    5.7359   17.2239   -0.7115 H   0  0  0  0  0  0  0  0  0  0  0  0
    5.2189   18.9442   -0.7115 H   0  0  0  0  0  0  0  0  0  0  0  0
    6.8485   17.5521   -2.6547 H   0  0  0  0  0  0  0  0  0  0  0  0
    5.8658   16.7898   -3.9508 H   0  0  0  0  0  0  0  0  0  0  0  0
    6.1293   18.5667   -3.9508 H   0  0  0  0  0  0  0  0  0  0  0  0
   -0.3768   15.8192   -1.0931 H   0  0  0  0  0  0  0  0  0  0  0  0
   -0.9596   16.2560   -3.3967 H   0  0  0  0  0  0  0  0  0  0  0  0
    0.6957   16.7594   -3.8007 H   0  0  0  0  0  0  0  0  0  0  0  0
   -0.4907   14.2508   -4.4832 H   0  0  0  0  0  0  0  0  0  0  0  0
    1.2390   14.5770   -4.5547 H   0  0  0  0  0  0  0  0  0  0  0  0
   -0.9049   13.3217   -1.0713 H   0  0  0  0  0  0  0  0  0  0  0  0
   -1.5800   14.0851   -2.5506 H   0  0  0  0  0  0  0  0  0  0  0  0
   -1.1671   12.3369   -2.5506 H   0  0  0  0  0  0  0  0  0  0  0  0
    2.3288   12.7773   -3.3552 H   0  0  0  0  0  0  0  0  0  0  0  0
    0.2549   11.9506   -4.6417 H   0  0  0  0  0  0  0  0  0  0  0  0
    1.6842   10.8352   -4.3203 H   0  0  0  0  0  0  0  0  0  0  0  0
   -0.7104    9.7792   -4.0157 H   0  0  0  0  0  0  0  0  0  0  0  0
    0.1032   11.3995   -0.4095 H   0  0  0  0  0  0  0  0  0  0  0  0
    1.9697    8.9539   -0.5869 H   0  0  0  0  0  0  0  0  0  0  0  0
    1.8434   10.1345    0.7920 H   0  0  0  0  0  0  0  0  0  0  0  0
    0.6715    8.0086    1.2690 H   0  0  0  0  0  0  0  0  0  0  0  0
   -0.4397    9.4331    1.2237 H   0  0  0  0  0  0  0  0  0  0  0  0
   -1.4872    7.6008    0.0803 H   0  0  0  0  0  0  0  0  0  0  0  0
    0.4270    6.4450   -0.4730 H   0  0  0  0  0  0  0  0  0  0  0  0
   -2.2552    9.8404    0.3180 H   0  0  0  0  0  0  0  0  0  0  0  0
   -2.2554   10.9736   -1.0757 H   0  0  0  0  0  0  0  0  0  0  0  0
   -3.3505    9.5498   -1.0757 H   0  0  0  0  0  0  0  0  0  0  0  0
   -2.6236    7.4889   -2.0822 H   0  0  0  0  0  0  0  0  0  0  0  0
   -2.5888    8.9071   -3.1841 H   0  0  0  0  0  0  0  0  0  0  0  0
   -1.2266    7.7361   -3.1841 H   0  0  0  0  0  0  0  0  0  0  0  0
    3.6326   10.4920   -0.9817 H   0  0  0  0  0  0  0  0  0  0  0  0
    2.8431    9.9363   -2.4964 H   0  0  0  0  0  0  0  0  0  0  0  0
    3.8302   11.4371   -2.4964 H   0  0  0  0  0  0  0  0  0  0  0  0
    2.2271   12.1565    0.5340 H   0  0  0  0  0  0  0  0  0  0  0  0
    3.3262   12.9798   -0.7103 H   0  0  0  0  0  0  0  0  0  0  0  0
    0.5008   13.7587    0.0626 H   0  0  0  0  0  0  0  0  0  0  0  0
    2.0370   14.6715    0.3336 H   0  0  0  0  0  0  0  0  0  0  0  0
    3.4531   15.1896   -1.3447 H   0  0  0  0  0  0  0  0  0  0  0  0
    3.1986   14.1949   -2.8186 H   0  0  0  0  0  0  0  0  0  0  0  0
    2.7447   15.9329   -2.8186 H   0  0  0  0  0  0  0  0  0  0  0  0
  1  2  1  0
  2  3  1  0
  3  4  1  0
  4  5  1  0
  5  6  1  0
  6  7  1  0
  7  8  1  0
  7  9  1  0
  2 10  1  0
 10 11  1  0
 11 12  1  0
 12 13  1  0
 13 14  1  1
 13 15  1  0
 15 16  1  0
 16 17  1  0
 17 18  2  0
 18 19  1  0
 19 20  1  0
 20 21  1  0
 21 22  1  0
 22 23  1  0
 22 24  1  0
 24 25  1  0
 24 26  1  0
 19 27  1  0
 27 28  1  6
 27 29  1  0
 29 30  1  0
 30 31  1  0
 31 32  1  6
  7  5  1  0
 31 10  1  0
 31 13  1  0
 27 15  1  0
 24 18  1  0
  1 33  1  0
  1 34  1  0
  1 35  1  0
  2 36  1  1
  3 37  1  0
  3 38  1  0
  4 39  1  0
  4 40  1  0
  5 41  1  6
  8 42  1  0
  8 43  1  0
  8 44  1  0
  9 45  1  0
  9 46  1  0
  9 47  1  0
 10 48  1  1
 11 49  1  0
 11 50  1  0
 12 51  1  0
 12 52  1  0
 14 53  1  0
 14 54  1  0
 14 55  1  0
 15 56  1  6
 16 57  1  0
 16 58  1  0
 17 59  1  0
 19 60  1  1
 20 61  1  0
 20 62  1  0
 21 63  1  0
 21 64  1  0
 22 65  1  1
 23 66  1  0
 25 67  1  0
 25 68  1  0
 25 69  1  0
 26 70  1  0
 26 71  1  0
 26 72  1  0
 28 73  1  0
 28 74  1  0
 28 75  1  0
 29 76  1  0
 29 77  1  0
 30 78  1  0
 30 79  1  0
 32 80  1  0
 32 81  1  0
 32 82  1  0
M  END
>  <meeko>  (11) 
{"is_sidechain": [false], "intermolecular_energy": 2.731, "internal_energy": -0.839}

$$$$
EPH_relaxed_0001_pdb2pqr_Repair_335_r2_0001_out
     RDKit          3D

 82 86  0  0  0  0  0  0  0  0999 V2000
    0.1320   10.4790    2.0120 C   0  0  0  0  0  0  0  0  0  0  0  0
    0.4150   10.5920    0.5120 C   0  0  2  0  0  0  0  0  0  0  0  0
    0.9010    9.2580   -0.0900 C   0  0  0  0  0  0  0  0  0  0  0  0
    0.1390    8.8370   -1.3490 C   0  0  0  0  0  0  0  0  0  0  0  0
   -1.2470    8.3670   -1.0270 C   0  0  2  0  0  0  0  0  0  0  0  0
   -2.1980    8.5360   -2.0860 O   0  0  0  0  0  0  0  0  0  0  0  0
   -2.4360    9.2990   -0.8930 C   0  0  0  0  0  0  0  0  0  0  0  0
   -2.2940   10.7770   -1.0760 C   0  0  0  0  0  0  0  0  0  0  0  0
   -3.6240    8.8350   -0.1080 C   0  0  0  0  0  0  0  0  0  0  0  0
    1.4470   11.6850    0.2580 C   0  0  1  0  0  0  0  0  0  0  0  0
    2.7470   11.1400   -0.3910 C   0  0  0  0  0  0  0  0  0  0  0  0
    3.2610   12.2410   -1.3540 C   0  0  0  0  0  0  0  0  0  0  0  0
    2.4400   13.4980   -0.9830 C   0  0  1  0  0  0  0  0  0  0  0  0
    3.1540   14.0870    0.2740 C   0  0  0  0  0  0  0  0  0  0  0  0
    2.2740   14.5710   -2.1070 C   0  0  2  0  0  0  0  0  0  0  0  0
    3.5840   15.2160   -2.5930 C   0  0  0  0  0  0  0  0  0  0  0  0
    3.9950   16.4520   -1.8640 C   0  0  0  0  0  0  0  0  0  0  0  0
    3.2050   17.1820   -1.0540 C   0  0  0  0  0  0  0  0  0  0  0  0
    1.7200   16.8370   -0.8830 C   0  0  1  0  0  0  0  0  0  0  0  0
    0.8720   18.1310   -0.9970 C   0  0  0  0  0  0  0  0  0  0  0  0
    1.3330   19.2200   -0.0330 C   0  0  0  0  0  0  0  0  0  0  0  0
    2.7980   19.5760   -0.2740 C   0  0  2  0  0  0  0  0  0  0  0  0
    2.9180   20.1940   -1.5590 O   0  0  0  0  0  0  0  0  0  0  0  0
    3.7480   18.3490   -0.1930 C   0  0  0  0  0  0  0  0  0  0  0  0
    3.8490   17.8640    1.2740 C   0  0  0  0  0  0  0  0  0  0  0  0
    5.1720   18.8200   -0.5930 C   0  0  0  0  0  0  0  0  0  0  0  0
    1.1700   15.6640   -1.8030 C   0  0  1  0  0  0  0  0  0  0  0  0
    0.7170   16.2360   -3.1810 C   0  0  0  0  0  0  0  0  0  0  0  0
   -0.1150   15.0460   -1.1350 C   0  0  0  0  0  0  0  0  0  0  0  0
    0.1080   13.9080   -0.1210 C   0  0  0  0  0  0  0  0  0  0  0  0
    1.0430   12.8380   -0.6940 C   0  0  2  0  0  0  0  0  0  0  0  0
    0.3420   12.2120   -1.9470 C   0  0  0  0  0  0  0  0  0  0  0  0
    1.0081   10.8288    2.5778 H   0  0  0  0  0  0  0  0  0  0  0  0
   -0.7408   11.0976    2.2681 H   0  0  0  0  0  0  0  0  0  0  0  0
   -0.0747    9.4294    2.2681 H   0  0  0  0  0  0  0  0  0  0  0  0
   -0.5317   10.8523    0.0159 H   0  0  0  0  0  0  0  0  0  0  0  0
    1.9658    9.3603   -0.3465 H   0  0  0  0  0  0  0  0  0  0  0  0
    0.7245    8.4803    0.6676 H   0  0  0  0  0  0  0  0  0  0  0  0
    0.0741    9.6977   -2.0309 H   0  0  0  0  0  0  0  0  0  0  0  0
    0.6836    8.0036   -1.8168 H   0  0  0  0  0  0  0  0  0  0  0  0
   -0.8519    7.5760   -0.3726 H   0  0  0  0  0  0  0  0  0  0  0  0
   -2.2471   11.2655   -0.0915 H   0  0  0  0  0  0  0  0  0  0  0  0
   -1.3712   10.9902   -1.6355 H   0  0  0  0  0  0  0  0  0  0  0  0
   -3.1593   11.1620   -1.6355 H   0  0  0  0  0  0  0  0  0  0  0  0
   -3.4085    8.9192    0.9674 H   0  0  0  0  0  0  0  0  0  0  0  0
   -4.4948    9.4591   -0.3574 H   0  0  0  0  0  0  0  0  0  0  0  0
   -3.8413    7.7859   -0.3574 H   0  0  0  0  0  0  0  0  0  0  0  0
    1.5653   12.0678    1.2824 H   0  0  0  0  0  0  0  0  0  0  0  0
    3.4996   10.9331    0.3842 H   0  0  0  0  0  0  0  0  0  0  0  0
    2.5556   10.2008   -0.9307 H   0  0  0  0  0  0  0  0  0  0  0  0
    4.3355   12.4199   -1.2011 H   0  0  0  0  0  0  0  0  0  0  0  0
    3.1400   11.9606   -2.4108 H   0  0  0  0  0  0  0  0  0  0  0  0
    2.6775   13.6939    1.1842 H   0  0  0  0  0  0  0  0  0  0  0  0
    4.2154   13.7982    0.2618 H   0  0  0  0  0  0  0  0  0  0  0  0
    3.0723   15.1839    0.2618 H   0  0  0  0  0  0  0  0  0  0  0  0
    1.9051   13.9709   -2.9518 H   0  0  0  0  0  0  0  0  0  0  0  0
    4.3888   14.4740   -2.4846 H   0  0  0  0  0  0  0  0  0  0  0  0
    3.4044   15.5223   -3.6341 H   0  0  0  0  0  0  0  0  0  0  0  0
    5.0311   16.7956   -2.0000 H   0  0  0  0  0  0  0  0  0  0  0  0
    1.6206   16.4128    0.1270 H   0  0  0  0  0  0  0  0  0  0  0  0
    0.9501   18.5142   -2.0251 H   0  0  0  0  0  0  0  0  0  0  0  0
   -0.1657   17.8738   -0.7382 H   0  0  0  0  0  0  0  0  0  0  0  0
    0.7150   20.1178   -0.1816 H   0  0  0  0  0  0  0  0  0  0  0  0
    1.2266   18.8465    0.9962 H   0  0  0  0  0  0  0  0  0  0  0  0
    3.1058   20.2641    0.5272 H   0  0  0  0  0  0  0  0  0  0  0  0
    2.0280   20.4700   -1.8360 H   0  0  0  0  0  0  0  0  0  0  0  0
    3.6726   18.7111    1.9532 H   0  0  0  0  0  0  0  0  0  0  0  0
    3.0938   17.0851    1.4555 H   0  0  0  0  0  0  0  0  0  0  0  0
    4.8524   17.4513    1.4555 H   0  0  0  0  0  0  0  0  0  0  0  0
    5.7621   19.0152    0.3146 H   0  0  0  0  0  0  0  0  0  0  0  0
    5.6635   18.0366   -1.1885 H   0  0  0  0  0  0  0  0  0  0  0  0
    5.0995   19.7420   -1.1885 H   0  0  0  0  0  0  0  0  0  0  0  0
    0.0415   17.0890   -3.0197 H   0  0  0  0  0  0  0  0  0  0  0  0
    1.5991   16.5689   -3.7477 H   0  0  0  0  0  0  0  0  0  0  0  0
    0.1909   15.4537   -3.7477 H   0  0  0  0  0  0  0  0  0  0  0  0
   -0.6420   15.8583   -0.6130 H   0  0  0  0  0  0  0  0  0  0  0  0
   -0.6774   14.5882   -1.9621 H   0  0  0  0  0  0  0  0  0  0  0  0
    0.5551   14.3239    0.7940 H   0  0  0  0  0  0  0  0  0  0  0  0
   -0.8631   13.4420    0.1022 H   0  0  0  0  0  0  0  0  0  0  0  0
   -0.4409   11.5128   -1.6180 H   0  0  0  0  0  0  0  0  0  0  0  0
   -0.1109   13.0117   -2.5515 H   0  0  0  0  0  0  0  0  0  0  0  0
    1.0855   11.6719   -2.5515 H   0  0  0  0  0  0  0  0  0  0  0  0
  1  2  1  0
  2  3  1  0
  3  4  1  0
  4  5  1  0
  5  6  1  0
  6  7  1  0
  7  8  1  0
  7  9  1  0
  2 10  1  0
 10 11  1  0
 11 12  1  0
 12 13  1  0
 13 14  1  1
 13 15  1  0
 15 16  1  0
 16 17  1  0
 17 18  2  0
 18 19  1  0
 19 20  1  0
 20 21  1  0
 21 22  1  0
 22 23  1  0
 22 24  1  0
 24 25  1  0
 24 26  1  0
 19 27  1  0
 27 28  1  6
 27 29  1  0
 29 30  1  0
 30 31  1  0
 31 32  1  6
  7  5  1  0
 31 10  1  0
 31 13  1  0
 27 15  1  0
 24 18  1  0
  1 33  1  0
  1 34  1  0
  1 35  1  0
  2 36  1  6
  3 37  1  0
  3 38  1  0
  4 39  1  0
  4 40  1  0
  5 41  1  1
  8 42  1  0
  8 43  1  0
  8 44  1  0
  9 45  1  0
  9 46  1  0
  9 47  1  0
 10 48  1  1
 11 49  1  0
 11 50  1  0
 12 51  1  0
 12 52  1  0
 14 53  1  0
 14 54  1  0
 14 55  1  0
 15 56  1  6
 16 57  1  0
 16 58  1  0
 17 59  1  0
 19 60  1  1
 20 61  1  0
 20 62  1  0
 21 63  1  0
 21 64  1  0
 22 65  1  1
 23 66  1  0
 25 67  1  0
 25 68  1  0
 25 69  1  0
 26 70  1  0
 26 71  1  0
 26 72  1  0
 28 73  1  0
 28 74  1  0
 28 75  1  0
 29 76  1  0
 29 77  1  0
 30 78  1  0
 30 79  1  0
 32 80  1  0
 32 81  1  0
 32 82  1  0
M  END
>  <meeko>  (12) 
{"is_sidechain": [false], "intermolecular_energy": 2.731, "internal_energy": -0.839}

$$$$
EPH_relaxed_0001_pdb2pqr_Repair_335_r2_0001_out
     RDKit          3D

 82 86  0  0  0  0  0  0  0  0999 V2000
    2.2540   19.3450    0.1180 C   0  0  0  0  0  0  0  0  0  0  0  0
    2.9140   17.9980   -0.1900 C   0  0  2  0  0  0  0  0  0  0  0  0
    3.7250   18.0350   -1.5000 C   0  0  0  0  0  0  0  0  0  0  0  0
    5.2370   17.9050   -1.2920 C   0  0  0  0  0  0  0  0  0  0  0  0
    5.9850   18.0070   -2.5870 C   0  0  2  0  0  0  0  0  0  0  0  0
    5.1940   17.7630   -3.7570 O   0  0  0  0  0  0  0  0  0  0  0  0
    6.2480   16.8220   -3.4970 C   0  0  0  0  0  0  0  0  0  0  0  0
    5.7660   15.4490   -3.1490 C   0  0  0  0  0  0  0  0  0  0  0  0
    7.3830   16.9050   -4.4700 C   0  0  0  0  0  0  0  0  0  0  0  0
    1.8540   16.9050   -0.2640 C   0  0  1  0  0  0  0  0  0  0  0  0
    0.4590   17.4520   -0.6690 C   0  0  0  0  0  0  0  0  0  0  0  0
   -0.2170   16.3560   -1.5330 C   0  0  0  0  0  0  0  0  0  0  0  0
    0.6580   15.0980   -1.3220 C   0  0  1  0  0  0  0  0  0  0  0  0
    0.1790   14.4990    0.0370 C   0  0  0  0  0  0  0  0  0  0  0  0
    0.6240   14.0330   -2.4660 C   0  0  2  0  0  0  0  0  0  0  0  0
   -0.7510   13.3890   -2.7170 C   0  0  0  0  0  0  0  0  0  0  0  0
   -1.0250   12.1470   -1.9340 C   0  0  0  0  0  0  0  0  0  0  0  0
   -0.1040   11.4130   -1.2830 C   0  0  0  0  0  0  0  0  0  0  0  0
    1.3880   11.7600   -1.3750 C   0  0  1  0  0  0  0  0  0  0  0  0
    2.2030   10.4690   -1.6470 C   0  0  0  0  0  0  0  0  0  0  0  0
    1.9210    9.3720   -0.6250 C   0  0  0  0  0  0  0  0  0  0  0  0
    0.4370    9.0140   -0.6040 C   0  0  2  0  0  0  0  0  0  0  0  0
    0.0930    8.4050   -1.8520 O   0  0  0  0  0  0  0  0  0  0  0  0
   -0.4840   10.2390   -0.3480 C   0  0  0  0  0  0  0  0  0  0  0  0
   -0.3240   10.7140    1.1180 C   0  0  0  0  0  0  0  0  0  0  0  0
   -1.9570    9.7670   -0.4920 C   0  0  0  0  0  0  0  0  0  0  0  0
    1.7650   12.9410   -2.3700 C   0  0  1  0  0  0  0  0  0  0  0  0
    1.9670   12.3790   -3.8100 C   0  0  0  0  0  0  0  0  0  0  0  0
    3.1470   13.5570   -1.9350 C   0  0  0  0  0  0  0  0  0  0  0  0
    3.1060   14.6870   -0.8900 C   0  0  0  0  0  0  0  0  0  0  0  0
    2.0840   15.7590   -1.2810 C   0  0  2  0  0  0  0  0  0  0  0  0
    2.5520   16.3950   -2.6340 C   0  0  0  0  0  0  0  0  0  0  0  0
    2.1877   19.4802    1.2076 H   0  0  0  0  0  0  0  0  0  0  0  0
    2.8566   20.1564   -0.3162 H   0  0  0  0  0  0  0  0  0  0  0  0
    1.2435   19.3660   -0.3162 H   0  0  0  0  0  0  0  0  0  0  0  0
    3.6172   17.7793    0.6271 H   0  0  0  0  0  0  0  0  0  0  0  0
    3.3898   17.2051   -2.1395 H   0  0  0  0  0  0  0  0  0  0  0  0
    3.5472   19.0180   -1.9605 H   0  0  0  0  0  0  0  0  0  0  0  0
    5.5750   18.7083   -0.6208 H   0  0  0  0  0  0  0  0  0  0  0  0
    5.4396   16.9158   -0.8557 H   0  0  0  0  0  0  0  0  0  0  0  0
    6.6489   18.7782   -2.1692 H   0  0  0  0  0  0  0  0  0  0  0  0
    5.7278   15.3401   -2.0551 H   0  0  0  0  0  0  0  0  0  0  0  0
    4.7605   15.2962   -3.5680 H   0  0  0  0  0  0  0  0  0  0  0  0
    6.4554   14.7012   -3.5680 H   0  0  0  0  0  0  0  0  0  0  0  0
    8.3331   16.9745   -3.9200 H   0  0  0  0  0  0  0  0  0  0  0  0
    7.3904   16.0050   -5.1024 H   0  0  0  0  0  0  0  0  0  0  0  0
    7.2594   17.7965   -5.1024 H   0  0  0  0  0  0  0  0  0  0  0  0
    1.9189   16.5153    0.7626 H   0  0  0  0  0  0  0  0  0  0  0  0
   -0.1444   17.6528    0.2285 H   0  0  0  0  0  0  0  0  0  0  0  0
    0.5513   18.3949   -1.2280 H   0  0  0  0  0  0  0  0  0  0  0  0
   -1.2472   16.1740   -1.1930 H   0  0  0  0  0  0  0  0  0  0  0  0
   -0.2858   16.6434   -2.5926 H   0  0  0  0  0  0  0  0  0  0  0  0
    0.6305   15.0636    0.8660 H   0  0  0  0  0  0  0  0  0  0  0  0
   -0.9170   14.5665    0.1015 H   0  0  0  0  0  0  0  0  0  0  0  0
    0.4859   13.4446    0.1015 H   0  0  0  0  0  0  0  0  0  0  0  0
    0.8376   14.6392   -3.3587 H   0  0  0  0  0  0  0  0  0  0  0  0
   -1.5245   14.1287   -2.4631 H   0  0  0  0  0  0  0  0  0  0  0  0
   -0.7589   13.0900   -3.7755 H   0  0  0  0  0  0  0  0  0  0  0  0
   -2.0687   11.8029   -1.8853 H   0  0  0  0  0  0  0  0  0  0  0  0
    1.6648   12.1771   -0.3955 H   0  0  0  0  0  0  0  0  0  0  0  0
    1.9443   10.0932   -2.6479 H   0  0  0  0  0  0  0  0  0  0  0  0
    3.2699   10.7265   -1.5741 H   0  0  0  0  0  0  0  0  0  0  0  0
    2.5036    8.4767   -0.8879 H   0  0  0  0  0  0  0  0  0  0  0  0
    2.2078    9.7386    0.3717 H   0  0  0  0  0  0  0  0  0  0  0  0
    0.2757    8.3201    0.2342 H   0  0  0  0  0  0  0  0  0  0  0  0
   -0.1820    7.4910   -1.6670 H   0  0  0  0  0  0  0  0  0  0  0  0
   -0.5994    9.8964    1.8005 H   0  0  0  0  0  0  0  0  0  0  0  0
    0.7216   11.0047    1.2972 H   0  0  0  0  0  0  0  0  0  0  0  0
   -0.9807   11.5781    1.2972 H   0  0  0  0  0  0  0  0  0  0  0  0
   -2.3962    9.6263    0.5066 H   0  0  0  0  0  0  0  0  0  0  0  0
   -2.5330   10.5256   -1.0423 H   0  0  0  0  0  0  0  0  0  0  0  0
   -1.9848    8.8150   -1.0423 H   0  0  0  0  0  0  0  0  0  0  0  0
    2.3385   11.3453   -3.7514 H   0  0  0  0  0  0  0  0  0  0  0  0
    1.0073   12.3938   -4.3473 H   0  0  0  0  0  0  0  0  0  0  0  0
    2.6977   13.0014   -4.3473 H   0  0  0  0  0  0  0  0  0  0  0  0
    3.7585   12.7422   -1.5201 H   0  0  0  0  0  0  0  0  0  0  0  0
    3.5539   14.0217   -2.8452 H   0  0  0  0  0  0  0  0  0  0  0  0
    2.8279   14.2640    0.0866 H   0  0  0  0  0  0  0  0  0  0  0  0
    4.1010   15.1533   -0.8386 H   0  0  0  0  0  0  0  0  0  0  0  0
    3.1924   17.2653   -2.4279 H   0  0  0  0  0  0  0  0  0  0  0  0
    3.1195   15.6508   -3.2121 H   0  0  0  0  0  0  0  0  0  0  0  0
    1.6727   16.7155   -3.2121 H   0  0  0  0  0  0  0  0  0  0  0  0
  1  2  1  0
  2  3  1  0
  3  4  1  0
  4  5  1  0
  5  6  1  0
  6  7  1  0
  7  8  1  0
  7  9  1  0
  2 10  1  0
 10 11  1  0
 11 12  1  0
 12 13  1  0
 13 14  1  1
 13 15  1  0
 15 16  1  0
 16 17  1  0
 17 18  2  0
 18 19  1  0
 19 20  1  0
 20 21  1  0
 21 22  1  0
 22 23  1  0
 22 24  1  0
 24 25  1  0
 24 26  1  0
 19 27  1  0
 27 28  1  6
 27 29  1  0
 29 30  1  0
 30 31  1  0
 31 32  1  6
  7  5  1  0
 31 10  1  0
 31 13  1  0
 27 15  1  0
 24 18  1  0
  1 33  1  0
  1 34  1  0
  1 35  1  0
  2 36  1  1
  3 37  1  0
  3 38  1  0
  4 39  1  0
  4 40  1  0
  5 41  1  6
  8 42  1  0
  8 43  1  0
  8 44  1  0
  9 45  1  0
  9 46  1  0
  9 47  1  0
 10 48  1  1
 11 49  1  0
 11 50  1  0
 12 51  1  0
 12 52  1  0
 14 53  1  0
 14 54  1  0
 14 55  1  0
 15 56  1  6
 16 57  1  0
 16 58  1  0
 17 59  1  0
 19 60  1  1
 20 61  1  0
 20 62  1  0
 21 63  1  0
 21 64  1  0
 22 65  1  1
 23 66  1  0
 25 67  1  0
 25 68  1  0
 25 69  1  0
 26 70  1  0
 26 71  1  0
 26 72  1  0
 28 73  1  0
 28 74  1  0
 28 75  1  0
 29 76  1  0
 29 77  1  0
 30 78  1  0
 30 79  1  0
 32 80  1  0
 32 81  1  0
 32 82  1  0
M  END
>  <meeko>  (13) 
{"is_sidechain": [false], "intermolecular_energy": 2.731, "internal_energy": -0.839}

$$$$
EPH_relaxed_0001_pdb2pqr_Repair_335_r2_0001_out
     RDKit          3D

 82 86  0  0  0  0  0  0  0  0999 V2000
    2.3970    9.4430   -0.7790 C   0  0  0  0  0  0  0  0  0  0  0  0
    1.1440   10.0260   -1.4380 C   0  0  2  0  0  0  0  0  0  0  0  0
    0.5160    9.0530   -2.4560 C   0  0  0  0  0  0  0  0  0  0  0  0
   -0.3320    7.9520   -1.8130 C   0  0  0  0  0  0  0  0  0  0  0  0
   -1.7660    8.3650   -1.6780 C   0  0  2  0  0  0  0  0  0  0  0  0
   -2.0090    9.7630   -1.8830 O   0  0  0  0  0  0  0  0  0  0  0  0
   -2.2790    9.2580   -0.5650 C   0  0  0  0  0  0  0  0  0  0  0  0
   -1.3630    9.7930    0.4910 C   0  0  0  0  0  0  0  0  0  0  0  0
   -3.7360    9.2120   -0.2240 C   0  0  0  0  0  0  0  0  0  0  0  0
    1.4820   11.3470   -2.1200 C   0  0  1  0  0  0  0  0  0  0  0  0
    0.9320   11.4290   -3.5690 C   0  0  0  0  0  0  0  0  0  0  0  0
    0.5280   12.9060   -3.8100 C   0  0  0  0  0  0  0  0  0  0  0  0
    1.1580   13.6810   -2.6300 C   0  0  1  0  0  0  0  0  0  0  0  0
    2.6500   13.8910   -3.0390 C   0  0  0  0  0  0  0  0  0  0  0  0
    0.4700   15.0310   -2.2430 C   0  0  2  0  0  0  0  0  0  0  0  0
    0.4890   16.1100   -3.3390 C   0  0  0  0  0  0  0  0  0  0  0  0
    1.6670   17.0270   -3.3110 C   0  0  0  0  0  0  0  0  0  0  0  0
    2.5220   17.1710   -2.2820 C   0  0  0  0  0  0  0  0  0  0  0  0
    2.2870   16.4380   -0.9550 C   0  0  1  0  0  0  0  0  0  0  0  0
    2.4800   17.4270    0.2250 C   0  0  0  0  0  0  0  0  0  0  0  0
    3.8310   18.1340    0.1800 C   0  0  0  0  0  0  0  0  0  0  0  0
    4.0020   18.9000   -1.1290 C   0  0  2  0  0  0  0  0  0  0  0  0
    3.0600   19.9760   -1.1620 O   0  0  0  0  0  0  0  0  0  0  0  0
    3.8210   18.0080   -2.3890 C   0  0  0  0  0  0  0  0  0  0  0  0
    5.0170   17.0330   -2.5140 C   0  0  0  0  0  0  0  0  0  0  0  0
    3.8780   18.9280   -3.6380 C   0  0  0  0  0  0  0  0  0  0  0  0
    0.9310   15.6170   -0.8470 C   0  0  1  0  0  0  0  0  0  0  0  0
   -0.2180   16.5490   -0.3550 C   0  0  0  0  0  0  0  0  0  0  0  0
    1.0930   14.4960    0.2480 C   0  0  0  0  0  0  0  0  0  0  0  0
    1.6670   13.1460   -0.2210 C   0  0  0  0  0  0  0  0  0  0  0  0
    0.9370   12.6430   -1.4700 C   0  0  2  0  0  0  0  0  0  0  0  0
   -0.5620   12.4010   -1.0830 C   0  0  0  0  0  0  0  0  0  0  0  0
    2.2924    9.4917    0.3149 H   0  0  0  0  0  0  0  0  0  0  0  0
    2.5205    8.3949   -1.0892 H   0  0  0  0  0  0  0  0  0  0  0  0
    3.2783   10.0235   -1.0892 H   0  0  0  0  0  0  0  0  0  0  0  0
    0.4020   10.1964   -0.6440 H   0  0  0  0  0  0  0  0  0  0  0  0
   -0.1245    9.6305   -3.1388 H   0  0  0  0  0  0  0  0  0  0  0  0
    1.3459    8.5553   -2.9791 H   0  0  0  0  0  0  0  0  0  0  0  0
   -0.2784    7.0492   -2.4391 H   0  0  0  0  0  0  0  0  0  0  0  0
    0.0652    7.7572   -0.8059 H   0  0  0  0  0  0  0  0  0  0  0  0
   -2.1060    7.3900   -2.0571 H   0  0  0  0  0  0  0  0  0  0  0  0
   -1.7704    9.5550    1.4847 H   0  0  0  0  0  0  0  0  0  0  0  0
   -0.3697    9.3330    0.3822 H   0  0  0  0  0  0  0  0  0  0  0  0
   -1.2757   10.8841    0.3822 H   0  0  0  0  0  0  0  0  0  0  0  0
   -3.8567    9.2082    0.8693 H   0  0  0  0  0  0  0  0  0  0  0  0
   -4.2392   10.0947   -0.6454 H   0  0  0  0  0  0  0  0  0  0  0  0
   -4.1826    8.2993   -0.6454 H   0  0  0  0  0  0  0  0  0  0  0  0
    2.5788   11.3197   -2.0412 H   0  0  0  0  0  0  0  0  0  0  0  0
    1.7087   11.1266   -4.2868 H   0  0  0  0  0  0  0  0  0  0  0  0
    0.0718   10.7568   -3.7040 H   0  0  0  0  0  0  0  0  0  0  0  0
    0.9284   13.2664   -4.7691 H   0  0  0  0  0  0  0  0  0  0  0  0
   -0.5631   13.0369   -3.8596 H   0  0  0  0  0  0  0  0  0  0  0  0
    3.2694   13.9782   -2.1342 H   0  0  0  0  0  0  0  0  0  0  0  0
    2.9911   13.0320   -3.6355 H   0  0  0  0  0  0  0  0  0  0  0  0
    2.7407   14.8108   -3.6355 H   0  0  0  0  0  0  0  0  0  0  0  0
   -0.5838   14.7355   -2.1325 H   0  0  0  0  0  0  0  0  0  0  0  0
    0.4760   15.6032   -4.3152 H   0  0  0  0  0  0  0  0  0  0  0  0
   -0.3930   16.7422   -3.1589 H   0  0  0  0  0  0  0  0  0  0  0  0
    1.8516   17.6367   -4.2078 H   0  0  0  0  0  0  0  0  0  0  0  0
    3.0490   15.6462   -0.9066 H   0  0  0  0  0  0  0  0  0  0  0  0
    1.6838   18.1848    0.1839 H   0  0  0  0  0  0  0  0  0  0  0  0
    2.4378   16.8461    1.1581 H   0  0  0  0  0  0  0  0  0  0  0  0
    3.8963   18.8397    1.0213 H   0  0  0  0  0  0  0  0  0  0  0  0
    4.6261   17.3771    0.2505 H   0  0  0  0  0  0  0  0  0  0  0  0
    5.0351   19.2768   -1.1569 H   0  0  0  0  0  0  0  0  0  0  0  0
    3.0100   20.2960   -2.0780 H   0  0  0  0  0  0  0  0  0  0  0  0
    5.3652   16.7492   -1.5099 H   0  0  0  0  0  0  0  0  0  0  0  0
    4.7003   16.1324   -3.0605 H   0  0  0  0  0  0  0  0  0  0  0  0
    5.8353   17.5247   -3.0605 H   0  0  0  0  0  0  0  0  0  0  0  0
    3.9431   19.9782   -3.3172 H   0  0  0  0  0  0  0  0  0  0  0  0
    4.7621   18.6733   -4.2409 H   0  0  0  0  0  0  0  0  0  0  0  0
    2.9692   18.7844   -4.2409 H   0  0  0  0  0  0  0  0  0  0  0  0
   -0.2340   16.5620    0.7448 H   0  0  0  0  0  0  0  0  0  0  0  0
   -0.0495   17.5688   -0.7313 H   0  0  0  0  0  0  0  0  0  0  0  0
   -1.1811   16.1737   -0.7313 H   0  0  0  0  0  0  0  0  0  0  0  0
    1.7604   14.8880    1.0296 H   0  0  0  0  0  0  0  0  0  0  0  0
    0.0701   14.2727    0.5853 H   0  0  0  0  0  0  0  0  0  0  0  0
    2.7347   13.2707   -0.4542 H   0  0  0  0  0  0  0  0  0  0  0  0
    1.5318   12.4091    0.5844 H   0  0  0  0  0  0  0  0  0  0  0  0
   -0.6599   12.3852    0.0125 H   0  0  0  0  0  0  0  0  0  0  0  0
   -1.1823   13.2106   -1.4949 H   0  0  0  0  0  0  0  0  0  0  0  0
   -0.8961   11.4373   -1.4949 H   0  0  0  0  0  0  0  0  0  0  0  0
  1  2  1  0
  2  3  1  0
  3  4  1  0
  4  5  1  0
  5  6  1  0
  6  7  1  0
  7  8  1  0
  7  9  1  0
  2 10  1  0
 10 11  1  0
 11 12  1  0
 12 13  1  0
 13 14  1  6
 13 15  1  0
 15 16  1  0
 16 17  1  0
 17 18  2  0
 18 19  1  0
 19 20  1  0
 20 21  1  0
 21 22  1  0
 22 23  1  0
 22 24  1  0
 24 25  1  0
 24 26  1  0
 19 27  1  0
 27 28  1  1
 27 29  1  0
 29 30  1  0
 30 31  1  0
 31 32  1  1
  7  5  1  0
 31 10  1  0
 31 13  1  0
 27 15  1  0
 24 18  1  0
  1 33  1  0
  1 34  1  0
  1 35  1  0
  2 36  1  1
  3 37  1  0
  3 38  1  0
  4 39  1  0
  4 40  1  0
  5 41  1  6
  8 42  1  0
  8 43  1  0
  8 44  1  0
  9 45  1  0
  9 46  1  0
  9 47  1  0
 10 48  1  6
 11 49  1  0
 11 50  1  0
 12 51  1  0
 12 52  1  0
 14 53  1  0
 14 54  1  0
 14 55  1  0
 15 56  1  1
 16 57  1  0
 16 58  1  0
 17 59  1  0
 19 60  1  1
 20 61  1  0
 20 62  1  0
 21 63  1  0
 21 64  1  0
 22 65  1  1
 23 66  1  0
 25 67  1  0
 25 68  1  0
 25 69  1  0
 26 70  1  0
 26 71  1  0
 26 72  1  0
 28 73  1  0
 28 74  1  0
 28 75  1  0
 29 76  1  0
 29 77  1  0
 30 78  1  0
 30 79  1  0
 32 80  1  0
 32 81  1  0
 32 82  1  0
M  END
>  <meeko>  (14) 
{"is_sidechain": [false], "intermolecular_energy": 2.731, "internal_energy": -0.839}

$$$$
EPH_relaxed_0001_pdb2pqr_Repair_335_r2_0001_out
     RDKit          3D

 82 86  0  0  0  0  0  0  0  0999 V2000
    1.1330    8.9220   -0.3950 C   0  0  0  0  0  0  0  0  0  0  0  0
    0.0390    9.6890   -1.1430 C   0  0  2  0  0  0  0  0  0  0  0  0
   -0.7060    8.7980   -2.1570 C   0  0  0  0  0  0  0  0  0  0  0  0
   -2.1600    8.5120   -1.7720 C   0  0  0  0  0  0  0  0  0  0  0  0
   -2.7210    7.3560   -2.5430 C   0  0  2  0  0  0  0  0  0  0  0  0
   -3.7440    7.7030   -3.4850 O   0  0  0  0  0  0  0  0  0  0  0  0
   -4.1470    6.8620   -2.3920 C   0  0  0  0  0  0  0  0  0  0  0  0
   -5.1020    7.5140   -1.4420 C   0  0  0  0  0  0  0  0  0  0  0  0
   -4.4650    5.4570   -2.7980 C   0  0  0  0  0  0  0  0  0  0  0  0
    0.6440   10.8940   -1.8550 C   0  0  1  0  0  0  0  0  0  0  0  0
    0.2400   10.9690   -3.3510 C   0  0  0  0  0  0  0  0  0  0  0  0
    0.1020   12.4720   -3.7030 C   0  0  0  0  0  0  0  0  0  0  0  0
    0.7460   13.2130   -2.5080 C   0  0  1  0  0  0  0  0  0  0  0  0
    2.2820   13.1600   -2.7850 C   0  0  0  0  0  0  0  0  0  0  0  0
    0.2550   14.6760   -2.2560 C   0  0  2  0  0  0  0  0  0  0  0  0
    0.5420   15.6660   -3.3980 C   0  0  0  0  0  0  0  0  0  0  0  0
    1.8460   16.3870   -3.3040 C   0  0  0  0  0  0  0  0  0  0  0  0
    2.6220   16.4610   -2.2070 C   0  0  0  0  0  0  0  0  0  0  0  0
    2.1590   15.8610   -0.8730 C   0  0  1  0  0  0  0  0  0  0  0  0
    2.4080   16.8810    0.2690 C   0  0  0  0  0  0  0  0  0  0  0  0
    3.8550   17.3640    0.3170 C   0  0  0  0  0  0  0  0  0  0  0  0
    4.2590   18.0070   -1.0070 C   0  0  2  0  0  0  0  0  0  0  0  0
    3.5090   19.2130   -1.1820 O   0  0  0  0  0  0  0  0  0  0  0  0
    4.0430   17.0750   -2.2320 C   0  0  0  0  0  0  0  0  0  0  0  0
    5.0730   15.9190   -2.1950 C   0  0  0  0  0  0  0  0  0  0  0  0
    4.3560   17.8930   -3.5150 C   0  0  0  0  0  0  0  0  0  0  0  0
    0.6840   15.2700   -0.8530 C   0  0  1  0  0  0  0  0  0  0  0  0
   -0.3370   16.4010   -0.5190 C   0  0  0  0  0  0  0  0  0  0  0  0
    0.5690   14.2110    0.3060 C   0  0  0  0  0  0  0  0  0  0  0  0
    0.9550   12.7600   -0.0390 C   0  0  0  0  0  0  0  0  0  0  0  0
    0.2620   12.2990   -1.3250 C   0  0  2  0  0  0  0  0  0  0  0  0
   -1.2840   12.3200   -1.0690 C   0  0  0  0  0  0  0  0  0  0  0  0
    0.9801    9.0292    0.6890 H   0  0  0  0  0  0  0  0  0  0  0  0
    1.0868    7.8575   -0.6683 H   0  0  0  0  0  0  0  0  0  0  0  0
    2.1180    9.3283   -0.6683 H   0  0  0  0  0  0  0  0  0  0  0  0
   -0.6965   10.0269   -0.3981 H   0  0  0  0  0  0  0  0  0  0  0  0
   -0.6982    9.3026   -3.1344 H   0  0  0  0  0  0  0  0  0  0  0  0
   -0.1830    7.8305   -2.1805 H   0  0  0  0  0  0  0  0  0  0  0  0
   -2.2051    8.2794   -0.6978 H   0  0  0  0  0  0  0  0  0  0  0  0
   -2.7587    9.4041   -2.0079 H   0  0  0  0  0  0  0  0  0  0  0  0
   -1.7525    6.8354   -2.5103 H   0  0  0  0  0  0  0  0  0  0  0  0
   -4.7923    7.3025   -0.4079 H   0  0  0  0  0  0  0  0  0  0  0  0
   -5.1014    8.6011   -1.6099 H   0  0  0  0  0  0  0  0  0  0  0  0
   -6.1143    7.1176   -1.6099 H   0  0  0  0  0  0  0  0  0  0  0  0
   -4.6050    4.8384   -1.8993 H   0  0  0  0  0  0  0  0  0  0  0  0
   -5.3878    5.4482   -3.3966 H   0  0  0  0  0  0  0  0  0  0  0  0
   -3.6359    5.0517   -3.3966 H   0  0  0  0  0  0  0  0  0  0  0  0
    1.7110   10.6994   -1.6717 H   0  0  0  0  0  0  0  0  0  0  0  0
    1.0158   10.5033   -3.9765 H   0  0  0  0  0  0  0  0  0  0  0  0
   -0.7033   10.4330   -3.5323 H   0  0  0  0  0  0  0  0  0  0  0  0
    0.6360   12.7029   -4.6366 H   0  0  0  0  0  0  0  0  0  0  0  0
   -0.9451   12.7687   -3.8627 H   0  0  0  0  0  0  0  0  0  0  0  0
    2.8265   13.1412   -1.8294 H   0  0  0  0  0  0  0  0  0  0  0  0
    2.5197   12.2531   -3.3604 H   0  0  0  0  0  0  0  0  0  0  0  0
    2.5817   14.0483   -3.3604 H   0  0  0  0  0  0  0  0  0  0  0  0
   -0.8384   14.5581   -2.2318 H   0  0  0  0  0  0  0  0  0  0  0  0
    0.5308   15.1056   -4.3445 H   0  0  0  0  0  0  0  0  0  0  0  0
   -0.2384   16.4387   -3.3344 H   0  0  0  0  0  0  0  0  0  0  0  0
    2.2028   16.9015   -4.2084 H   0  0  0  0  0  0  0  0  0  0  0  0
    2.7762   14.9646   -0.7131 H   0  0  0  0  0  0  0  0  0  0  0  0
    1.7511   17.7498    0.1152 H   0  0  0  0  0  0  0  0  0  0  0  0
    2.1932   16.3747    1.2216 H   0  0  0  0  0  0  0  0  0  0  0  0
    3.9610   18.1041    1.1239 H   0  0  0  0  0  0  0  0  0  0  0  0
    4.5084   16.4984    0.5011 H   0  0  0  0  0  0  0  0  0  0  0  0
    5.3382   18.2141   -0.9570 H   0  0  0  0  0  0  0  0  0  0  0  0
    4.0070   19.9330   -0.7590 H   0  0  0  0  0  0  0  0  0  0  0  0
    5.3004   15.6638   -1.1494 H   0  0  0  0  0  0  0  0  0  0  0  0
    4.6545   15.0386   -2.7046 H   0  0  0  0  0  0  0  0  0  0  0  0
    5.9957   16.2336   -2.7046 H   0  0  0  0  0  0  0  0  0  0  0  0
    4.7360   18.8861   -3.2331 H   0  0  0  0  0  0  0  0  0  0  0  0
    5.1157   17.3651   -4.1102 H   0  0  0  0  0  0  0  0  0  0  0  0
    3.4380   18.0071   -4.1102 H   0  0  0  0  0  0  0  0  0  0  0  0
   -0.4282   16.5020    0.5725 H   0  0  0  0  0  0  0  0  0  0  0  0
    0.0153   17.3511   -0.9470 H   0  0  0  0  0  0  0  0  0  0  0  0
   -1.3181   16.1474   -0.9470 H   0  0  0  0  0  0  0  0  0  0  0  0
    1.2221   14.5431    1.1264 H   0  0  0  0  0  0  0  0  0  0  0  0
   -0.5015   14.1727    0.5561 H   0  0  0  0  0  0  0  0  0  0  0  0
    2.0448   12.7006   -0.1764 H   0  0  0  0  0  0  0  0  0  0  0  0
    0.6345   12.1064    0.7857 H   0  0  0  0  0  0  0  0  0  0  0  0
   -1.4763   12.3226    0.0141 H   0  0  0  0  0  0  0  0  0  0  0  0
   -1.7182   13.2241   -1.5207 H   0  0  0  0  0  0  0  0  0  0  0  0
   -1.7426   11.4280   -1.5207 H   0  0  0  0  0  0  0  0  0  0  0  0
  1  2  1  0
  2  3  1  0
  3  4  1  0
  4  5  1  0
  5  6  1  0
  6  7  1  0
  7  8  1  0
  7  9  1  0
  2 10  1  0
 10 11  1  0
 11 12  1  0
 12 13  1  0
 13 14  1  6
 13 15  1  0
 15 16  1  0
 16 17  1  0
 17 18  2  0
 18 19  1  0
 19 20  1  0
 20 21  1  0
 21 22  1  0
 22 23  1  0
 22 24  1  0
 24 25  1  0
 24 26  1  0
 19 27  1  0
 27 28  1  1
 27 29  1  0
 29 30  1  0
 30 31  1  0
 31 32  1  1
  7  5  1  0
 31 10  1  0
 31 13  1  0
 27 15  1  0
 24 18  1  0
  1 33  1  0
  1 34  1  0
  1 35  1  0
  2 36  1  1
  3 37  1  0
  3 38  1  0
  4 39  1  0
  4 40  1  0
  5 41  1  6
  8 42  1  0
  8 43  1  0
  8 44  1  0
  9 45  1  0
  9 46  1  0
  9 47  1  0
 10 48  1  6
 11 49  1  0
 11 50  1  0
 12 51  1  0
 12 52  1  0
 14 53  1  0
 14 54  1  0
 14 55  1  0
 15 56  1  1
 16 57  1  0
 16 58  1  0
 17 59  1  0
 19 60  1  1
 20 61  1  0
 20 62  1  0
 21 63  1  0
 21 64  1  0
 22 65  1  1
 23 66  1  0
 25 67  1  0
 25 68  1  0
 25 69  1  0
 26 70  1  0
 26 71  1  0
 26 72  1  0
 28 73  1  0
 28 74  1  0
 28 75  1  0
 29 76  1  0
 29 77  1  0
 30 78  1  0
 30 79  1  0
 32 80  1  0
 32 81  1  0
 32 82  1  0
M  END
>  <meeko>  (15) 
{"is_sidechain": [false], "intermolecular_energy": 2.731, "internal_energy": -0.839}

$$$$
EPH_relaxed_0001_pdb2pqr_Repair_335_r2_0001_out
     RDKit          3D

 82 86  0  0  0  0  0  0  0  0999 V2000
   -0.1270   10.3040   -3.0380 C   0  0  0  0  0  0  0  0  0  0  0  0
    0.5370   10.0820   -1.6760 C   0  0  2  0  0  0  0  0  0  0  0  0
   -0.2520    9.0890   -0.8000 C   0  0  0  0  0  0  0  0  0  0  0  0
   -1.6030    8.6820   -1.3950 C   0  0  0  0  0  0  0  0  0  0  0  0
   -2.7310    9.4710   -0.8000 C   0  0  2  0  0  0  0  0  0  0  0  0
   -3.1910    8.9920    0.4700 O   0  0  0  0  0  0  0  0  0  0  0  0
   -4.1310    8.9180   -0.6140 C   0  0  0  0  0  0  0  0  0  0  0  0
   -4.4800    7.5210   -1.0230 C   0  0  0  0  0  0  0  0  0  0  0  0
   -5.2700    9.8810   -0.4910 C   0  0  0  0  0  0  0  0  0  0  0  0
    0.6860   11.4130   -0.9480 C   0  0  1  0  0  0  0  0  0  0  0  0
    1.5050   11.2880    0.3640 C   0  0  0  0  0  0  0  0  0  0  0  0
    2.3150   12.6020    0.5130 C   0  0  0  0  0  0  0  0  0  0  0  0
    1.6920   13.5640   -0.5250 C   0  0  1  0  0  0  0  0  0  0  0  0
    0.4110   14.1260    0.1680 C   0  0  0  0  0  0  0  0  0  0  0  0
    2.6170   14.7110   -1.0460 C   0  0  2  0  0  0  0  0  0  0  0  0
    3.0860   15.7100    0.0260 C   0  0  0  0  0  0  0  0  0  0  0  0
    2.2010   16.8950    0.2250 C   0  0  0  0  0  0  0  0  0  0  0  0
    1.2320   17.2980   -0.6180 C   0  0  0  0  0  0  0  0  0  0  0  0
    1.0120   16.5890   -1.9610 C   0  0  1  0  0  0  0  0  0  0  0  0
    0.8590   17.6470   -3.0850 C   0  0  0  0  0  0  0  0  0  0  0  0
   -0.2310   18.6710   -2.7800 C   0  0  0  0  0  0  0  0  0  0  0  0
    0.0540   19.3950   -1.4670 C   0  0  2  0  0  0  0  0  0  0  0  0
    1.2300   20.1940   -1.6260 O   0  0  0  0  0  0  0  0  0  0  0  0
    0.2370   18.4300   -0.2630 C   0  0  0  0  0  0  0  0  0  0  0  0
   -1.1240   17.7860    0.1000 C   0  0  0  0  0  0  0  0  0  0  0  0
    0.6580   19.2770    0.9690 C   0  0  0  0  0  0  0  0  0  0  0  0
    2.0650   15.4570   -2.3280 C   0  0  1  0  0  0  0  0  0  0  0  0
    3.2990   16.0890   -3.0420 C   0  0  0  0  0  0  0  0  0  0  0  0
    1.4130   14.4650   -3.3630 C   0  0  0  0  0  0  0  0  0  0  0  0
    0.6110   13.2840   -2.7840 C   0  0  0  0  0  0  0  0  0  0  0  0
    1.4120   12.5570   -1.6990 C   0  0  2  0  0  0  0  0  0  0  0  0
    2.6960   11.9610   -2.3720 C   0  0  0  0  0  0  0  0  0  0  0  0
   -1.1607   10.6496   -2.8900 H   0  0  0  0  0  0  0  0  0  0  0  0
    0.4362   11.0627   -3.6012 H   0  0  0  0  0  0  0  0  0  0  0  0
   -0.1334    9.3591   -3.6012 H   0  0  0  0  0  0  0  0  0  0  0  0
    1.5294    9.6443   -1.8592 H   0  0  0  0  0  0  0  0  0  0  0  0
    0.3568    8.1823   -0.6684 H   0  0  0  0  0  0  0  0  0  0  0  0
   -0.4604    9.5966    0.1533 H   0  0  0  0  0  0  0  0  0  0  0  0
   -1.5809    8.8549   -2.4811 H   0  0  0  0  0  0  0  0  0  0  0  0
   -1.7712    7.6188   -1.1687 H   0  0  0  0  0  0  0  0  0  0  0  0
   -2.3592   10.3971   -1.2627 H   0  0  0  0  0  0  0  0  0  0  0  0
   -4.6342    6.9039   -0.1256 H   0  0  0  0  0  0  0  0  0  0  0  0
   -5.4025    7.5339   -1.6220 H   0  0  0  0  0  0  0  0  0  0  0  0
   -3.6598    7.0986   -1.6220 H   0  0  0  0  0  0  0  0  0  0  0  0
   -5.4840   10.0619    0.5727 H   0  0  0  0  0  0  0  0  0  0  0  0
   -5.0017   10.8303   -0.9777 H   0  0  0  0  0  0  0  0  0  0  0  0
   -6.1615    9.4586   -0.9777 H   0  0  0  0  0  0  0  0  0  0  0  0
   -0.3753   11.6672   -0.8100 H   0  0  0  0  0  0  0  0  0  0  0  0
    0.8286   11.1607    1.2221 H   0  0  0  0  0  0  0  0  0  0  0  0
    2.1725   10.4143    0.3311 H   0  0  0  0  0  0  0  0  0  0  0  0
    2.2121   13.0084    1.5300 H   0  0  0  0  0  0  0  0  0  0  0  0
    3.3916   12.4495    0.3469 H   0  0  0  0  0  0  0  0  0  0  0  0
    0.5317   14.0730    1.2601 H   0  0  0  0  0  0  0  0  0  0  0  0
    0.2602   15.1730   -0.1339 H   0  0  0  0  0  0  0  0  0  0  0  0
   -0.4615   13.5280   -0.1339 H   0  0  0  0  0  0  0  0  0  0  0  0
    3.5182   14.1628   -1.3579 H   0  0  0  0  0  0  0  0  0  0  0  0
    3.1553   15.1731    0.9836 H   0  0  0  0  0  0  0  0  0  0  0  0
    4.0491   16.1061   -0.3283 H   0  0  0  0  0  0  0  0  0  0  0  0
    2.3534   17.4895    1.1379 H   0  0  0  0  0  0  0  0  0  0  0  0
    0.0774   16.0187   -1.8548 H   0  0  0  0  0  0  0  0  0  0  0  0
    1.8162   18.1757   -3.2043 H   0  0  0  0  0  0  0  0  0  0  0  0
    0.5717   17.1174   -4.0054 H   0  0  0  0  0  0  0  0  0  0  0  0
   -0.2717   19.4076   -3.5960 H   0  0  0  0  0  0  0  0  0  0  0  0
   -1.1925   18.1444   -2.6895 H   0  0  0  0  0  0  0  0  0  0  0  0
   -0.8221   20.0196   -1.2383 H   0  0  0  0  0  0  0  0  0  0  0  0
    1.9200   19.8200   -1.0540 H   0  0  0  0  0  0  0  0  0  0  0  0
   -1.2265   17.7375    1.1941 H   0  0  0  0  0  0  0  0  0  0  0  0
   -1.9402   18.3934   -0.3182 H   0  0  0  0  0  0  0  0  0  0  0  0
   -1.1719   16.7697   -0.3182 H   0  0  0  0  0  0  0  0  0  0  0  0
    0.3912   18.7403    1.8914 H   0  0  0  0  0  0  0  0  0  0  0  0
    1.7447   19.4455    0.9441 H   0  0  0  0  0  0  0  0  0  0  0  0
    0.1362   20.2450    0.9441 H   0  0  0  0  0  0  0  0  0  0  0  0
    4.0118   16.4540   -2.2879 H   0  0  0  0  0  0  0  0  0  0  0  0
    3.7872   15.3300   -3.6709 H   0  0  0  0  0  0  0  0  0  0  0  0
    2.9684   16.9288   -3.6709 H   0  0  0  0  0  0  0  0  0  0  0  0
    0.7323   15.0489   -3.9999 H   0  0  0  0  0  0  0  0  0  0  0  0
    2.2600   14.0049   -3.8930 H   0  0  0  0  0  0  0  0  0  0  0  0
   -0.3243   13.6639   -2.3471 H   0  0  0  0  0  0  0  0  0  0  0  0
    0.3960   12.5741   -3.5963 H   0  0  0  0  0  0  0  0  0  0  0  0
    3.4003   11.6341   -1.5928 H   0  0  0  0  0  0  0  0  0  0  0  0
    2.4163   11.1007   -2.9977 H   0  0  0  0  0  0  0  0  0  0  0  0
    3.1726   12.7300   -2.9977 H   0  0  0  0  0  0  0  0  0  0  0  0
  1  2  1  0
  2  3  1  0
  3  4  1  0
  4  5  1  0
  5  6  1  0
  6  7  1  0
  7  8  1  0
  7  9  1  0
  2 10  1  0
 10 11  1  0
 11 12  1  0
 12 13  1  0
 13 14  1  1
 13 15  1  0
 15 16  1  0
 16 17  1  0
 17 18  2  0
 18 19  1  0
 19 20  1  0
 20 21  1  0
 21 22  1  0
 22 23  1  0
 22 24  1  0
 24 25  1  0
 24 26  1  0
 19 27  1  0
 27 28  1  6
 27 29  1  0
 29 30  1  0
 30 31  1  0
 31 32  1  6
  7  5  1  0
 31 10  1  0
 31 13  1  0
 27 15  1  0
 24 18  1  0
  1 33  1  0
  1 34  1  0
  1 35  1  0
  2 36  1  6
  3 37  1  0
  3 38  1  0
  4 39  1  0
  4 40  1  0
  5 41  1  1
  8 42  1  0
  8 43  1  0
  8 44  1  0
  9 45  1  0
  9 46  1  0
  9 47  1  0
 10 48  1  1
 11 49  1  0
 11 50  1  0
 12 51  1  0
 12 52  1  0
 14 53  1  0
 14 54  1  0
 14 55  1  0
 15 56  1  6
 16 57  1  0
 16 58  1  0
 17 59  1  0
 19 60  1  1
 20 61  1  0
 20 62  1  0
 21 63  1  0
 21 64  1  0
 22 65  1  1
 23 66  1  0
 25 67  1  0
 25 68  1  0
 25 69  1  0
 26 70  1  0
 26 71  1  0
 26 72  1  0
 28 73  1  0
 28 74  1  0
 28 75  1  0
 29 76  1  0
 29 77  1  0
 30 78  1  0
 30 79  1  0
 32 80  1  0
 32 81  1  0
 32 82  1  0
M  END
>  <meeko>  (16) 
{"is_sidechain": [false], "intermolecular_energy": 2.731, "internal_energy": -0.839}

$$$$
EPH_relaxed_0001_pdb2pqr_Repair_335_r2_0001_out
     RDKit          3D

 82 86  0  0  0  0  0  0  0  0999 V2000
    1.2540   10.6170   -4.9270 C   0  0  0  0  0  0  0  0  0  0  0  0
    0.6540   10.5150   -3.5220 C   0  0  2  0  0  0  0  0  0  0  0  0
   -0.5190    9.5160   -3.4630 C   0  0  0  0  0  0  0  0  0  0  0  0
   -0.3170    8.3890   -2.4470 C   0  0  0  0  0  0  0  0  0  0  0  0
    0.1610    8.9110   -1.1270 C   0  0  2  0  0  0  0  0  0  0  0  0
   -0.1910    8.0990    0.0010 O   0  0  0  0  0  0  0  0  0  0  0  0
   -0.7700    9.4140   -0.0390 C   0  0  0  0  0  0  0  0  0  0  0  0
   -2.2550    9.4190   -0.2240 C   0  0  0  0  0  0  0  0  0  0  0  0
   -0.2220   10.3450    0.9970 C   0  0  0  0  0  0  0  0  0  0  0  0
    0.1930   11.8890   -3.0530 C   0  0  1  0  0  0  0  0  0  0  0  0
   -1.0290   11.8160   -2.0990 C   0  0  0  0  0  0  0  0  0  0  0  0
   -0.8590   12.9590   -1.0650 C   0  0  0  0  0  0  0  0  0  0  0  0
    0.2630   13.8490   -1.6500 C   0  0  1  0  0  0  0  0  0  0  0  0
   -0.4480   14.7450   -2.7120 C   0  0  0  0  0  0  0  0  0  0  0  0
    1.0730   14.7050   -0.6210 C   0  0  2  0  0  0  0  0  0  0  0  0
    0.2480   15.7500    0.1500 C   0  0  0  0  0  0  0  0  0  0  0  0
    0.1720   17.0980   -0.4870 C   0  0  0  0  0  0  0  0  0  0  0  0
    0.9670   17.5420   -1.4780 C   0  0  0  0  0  0  0  0  0  0  0  0
    2.1340   16.6890   -1.9920 C   0  0  1  0  0  0  0  0  0  0  0  0
    3.4060   17.5690   -2.1130 C   0  0  0  0  0  0  0  0  0  0  0  0
    3.1750   18.8160   -2.9620 C   0  0  0  0  0  0  0  0  0  0  0  0
    2.0470   19.6670   -2.3850 C   0  0  2  0  0  0  0  0  0  0  0  0
    2.4670   20.1940   -1.1230 O   0  0  0  0  0  0  0  0  0  0  0  0
    0.7170   18.8840   -2.2090 C   0  0  0  0  0  0  0  0  0  0  0  0
    0.1070   18.5730   -3.5980 C   0  0  0  0  0  0  0  0  0  0  0  0
   -0.2950   19.8160   -1.4890 C   0  0  0  0  0  0  0  0  0  0  0  0
    2.4020   15.3340   -1.2060 C   0  0  1  0  0  0  0  0  0  0  0  0
    3.3400   15.6020    0.0110 C   0  0  0  0  0  0  0  0  0  0  0  0
    3.1720   14.3360   -2.1490 C   0  0  0  0  0  0  0  0  0  0  0  0
    2.3130   13.4330   -3.0550 C   0  0  0  0  0  0  0  0  0  0  0  0
    1.2060   12.7440   -2.2510 C   0  0  2  0  0  0  0  0  0  0  0  0
    1.8910   11.8180   -1.1880 C   0  0  0  0  0  0  0  0  0  0  0  0
    2.3359   10.8009   -4.8512 H   0  0  0  0  0  0  0  0  0  0  0  0
    1.0791    9.6762   -5.4696 H   0  0  0  0  0  0  0  0  0  0  0  0
    0.7781   11.4471   -5.4696 H   0  0  0  0  0  0  0  0  0  0  0  0
    1.4413   10.1390   -2.8521 H   0  0  0  0  0  0  0  0  0  0  0  0
   -1.4316   10.0675   -3.1930 H   0  0  0  0  0  0  0  0  0  0  0  0
   -0.5908    9.0456   -4.4548 H   0  0  0  0  0  0  0  0  0  0  0  0
   -1.2740    7.8674   -2.2985 H   0  0  0  0  0  0  0  0  0  0  0  0
    0.4483    7.7047   -2.8422 H   0  0  0  0  0  0  0  0  0  0  0  0
    1.0520    9.3523   -1.5976 H   0  0  0  0  0  0  0  0  0  0  0  0
   -2.7471    9.4207    0.7598 H   0  0  0  0  0  0  0  0  0  0  0  0
   -2.5517   10.3181   -0.7839 H   0  0  0  0  0  0  0  0  0  0  0  0
   -2.5578    8.5219   -0.7839 H   0  0  0  0  0  0  0  0  0  0  0  0
   -0.4519    9.9545    1.9993 H   0  0  0  0  0  0  0  0  0  0  0  0
    0.8683   10.4268    0.8765 H   0  0  0  0  0  0  0  0  0  0  0  0
   -0.6797   11.3380    0.8765 H   0  0  0  0  0  0  0  0  0  0  0  0
   -0.0069   12.3585   -4.0275 H   0  0  0  0  0  0  0  0  0  0  0  0
   -1.9612   11.9542   -2.6664 H   0  0  0  0  0  0  0  0  0  0  0  0
   -1.0823   10.8371   -1.6001 H   0  0  0  0  0  0  0  0  0  0  0  0
   -1.7932   13.5302   -0.9602 H   0  0  0  0  0  0  0  0  0  0  0  0
   -0.6122   12.5813   -0.0618 H   0  0  0  0  0  0  0  0  0  0  0  0
   -1.0537   15.5082   -2.2015 H   0  0  0  0  0  0  0  0  0  0  0  0
    0.3078   15.2374   -3.3415 H   0  0  0  0  0  0  0  0  0  0  0  0
   -1.0993   14.1208   -3.3415 H   0  0  0  0  0  0  0  0  0  0  0  0
    1.3762   13.9550    0.1243 H   0  0  0  0  0  0  0  0  0  0  0  0
   -0.7771   15.3647    0.2538 H   0  0  0  0  0  0  0  0  0  0  0  0
    0.7629   15.8959    1.1110 H   0  0  0  0  0  0  0  0  0  0  0  0
   -0.5999   17.7874   -0.1145 H   0  0  0  0  0  0  0  0  0  0  0  0
    1.8323   16.3307   -2.9873 H   0  0  0  0  0  0  0  0  0  0  0  0
    3.7163   17.8811   -1.1049 H   0  0  0  0  0  0  0  0  0  0  0  0
    4.1831   16.9673   -2.6071 H   0  0  0  0  0  0  0  0  0  0  0  0
    4.0994   19.4117   -2.9858 H   0  0  0  0  0  0  0  0  0  0  0  0
    2.8937   18.5020   -3.9780 H   0  0  0  0  0  0  0  0  0  0  0  0
    1.8416   20.4740   -3.1037 H   0  0  0  0  0  0  0  0  0  0  0  0
    3.0160   19.5190   -0.6900 H   0  0  0  0  0  0  0  0  0  0  0  0
   -0.8662   18.0769   -3.4683 H   0  0  0  0  0  0  0  0  0  0  0  0
   -0.0310   19.5108   -4.1562 H   0  0  0  0  0  0  0  0  0  0  0  0
    0.7849   17.9105   -4.1562 H   0  0  0  0  0  0  0  0  0  0  0  0
   -0.1802   19.7103   -0.4001 H   0  0  0  0  0  0  0  0  0  0  0  0
   -0.1024   20.8596   -1.7784 H   0  0  0  0  0  0  0  0  0  0  0  0
   -1.3193   19.5383   -1.7784 H   0  0  0  0  0  0  0  0  0  0  0  0
    2.7824   15.4427    0.9457 H   0  0  0  0  0  0  0  0  0  0  0  0
    4.1963   14.9126   -0.0272 H   0  0  0  0  0  0  0  0  0  0  0  0
    3.7028   16.6397   -0.0272 H   0  0  0  0  0  0  0  0  0  0  0  0
    3.8282   14.9325   -2.7998 H   0  0  0  0  0  0  0  0  0  0  0  0
    3.6974   13.6471   -1.4712 H   0  0  0  0  0  0  0  0  0  0  0  0
    1.8553   14.0468   -3.8448 H   0  0  0  0  0  0  0  0  0  0  0  0
    2.9603   12.6599   -3.4947 H   0  0  0  0  0  0  0  0  0  0  0  0
    1.6330   12.1668   -0.1772 H   0  0  0  0  0  0  0  0  0  0  0  0
    1.5383   10.7845   -1.3204 H   0  0  0  0  0  0  0  0  0  0  0  0
    2.9825   11.8528   -1.3204 H   0  0  0  0  0  0  0  0  0  0  0  0
  1  2  1  0
  2  3  1  0
  3  4  1  0
  4  5  1  0
  5  6  1  0
  6  7  1  0
  7  8  1  0
  7  9  1  0
  2 10  1  0
 10 11  1  0
 11 12  1  0
 12 13  1  0
 13 14  1  6
 13 15  1  0
 15 16  1  0
 16 17  1  0
 17 18  2  0
 18 19  1  0
 19 20  1  0
 20 21  1  0
 21 22  1  0
 22 23  1  0
 22 24  1  0
 24 25  1  0
 24 26  1  0
 19 27  1  0
 27 28  1  1
 27 29  1  0
 29 30  1  0
 30 31  1  0
 31 32  1  1
  7  5  1  0
 31 10  1  0
 31 13  1  0
 27 15  1  0
 24 18  1  0
  1 33  1  0
  1 34  1  0
  1 35  1  0
  2 36  1  1
  3 37  1  0
  3 38  1  0
  4 39  1  0
  4 40  1  0
  5 41  1  6
  8 42  1  0
  8 43  1  0
  8 44  1  0
  9 45  1  0
  9 46  1  0
  9 47  1  0
 10 48  1  6
 11 49  1  0
 11 50  1  0
 12 51  1  0
 12 52  1  0
 14 53  1  0
 14 54  1  0
 14 55  1  0
 15 56  1  1
 16 57  1  0
 16 58  1  0
 17 59  1  0
 19 60  1  6
 20 61  1  0
 20 62  1  0
 21 63  1  0
 21 64  1  0
 22 65  1  6
 23 66  1  0
 25 67  1  0
 25 68  1  0
 25 69  1  0
 26 70  1  0
 26 71  1  0
 26 72  1  0
 28 73  1  0
 28 74  1  0
 28 75  1  0
 29 76  1  0
 29 77  1  0
 30 78  1  0
 30 79  1  0
 32 80  1  0
 32 81  1  0
 32 82  1  0
M  END
>  <meeko>  (17) 
{"is_sidechain": [false], "intermolecular_energy": 2.731, "internal_energy": -0.839}

$$$$
EPH_relaxed_0001_pdb2pqr_Repair_335_r2_0001_out
     RDKit          3D

 82 86  0  0  0  0  0  0  0  0999 V2000
    4.9280   17.1350   -3.2360 C   0  0  0  0  0  0  0  0  0  0  0  0
    3.4880   17.2120   -2.7210 C   0  0  2  0  0  0  0  0  0  0  0  0
    3.2250   18.5050   -1.9230 C   0  0  0  0  0  0  0  0  0  0  0  0
    2.0200   19.3040   -2.4270 C   0  0  0  0  0  0  0  0  0  0  0  0
    0.7910   19.0240   -1.6160 C   0  0  2  0  0  0  0  0  0  0  0  0
    0.0360   20.1880   -1.2520 O   0  0  0  0  0  0  0  0  0  0  0  0
    0.6280   19.4520   -0.1690 C   0  0  0  0  0  0  0  0  0  0  0  0
    1.7090   20.1940    0.5510 C   0  0  0  0  0  0  0  0  0  0  0  0
   -0.3680   18.7290    0.6830 C   0  0  0  0  0  0  0  0  0  0  0  0
    3.1800   15.9950   -1.8570 C   0  0  1  0  0  0  0  0  0  0  0  0
    3.2190   16.3140   -0.3380 C   0  0  0  0  0  0  0  0  0  0  0  0
    2.1260   15.4410    0.3310 C   0  0  0  0  0  0  0  0  0  0  0  0
    1.7270   14.4160   -0.7560 C   0  0  1  0  0  0  0  0  0  0  0  0
    2.8280   13.3120   -0.6900 C   0  0  0  0  0  0  0  0  0  0  0  0
    0.2910   13.8070   -0.6370 C   0  0  2  0  0  0  0  0  0  0  0  0
    0.0330   12.9890    0.6400 C   0  0  0  0  0  0  0  0  0  0  0  0
    0.3380   11.5310    0.5350 C   0  0  0  0  0  0  0  0  0  0  0  0
    0.5270   10.8520   -0.6110 C   0  0  0  0  0  0  0  0  0  0  0  0
    0.3440   11.5360   -1.9720 C   0  0  1  0  0  0  0  0  0  0  0  0
   -0.5020   10.6260   -2.9000 C   0  0  0  0  0  0  0  0  0  0  0  0
    0.0780    9.2200   -3.0270 C   0  0  0  0  0  0  0  0  0  0  0  0
    0.1900    8.5510   -1.6600 C   0  0  2  0  0  0  0  0  0  0  0  0
   -1.1270    8.3250   -1.1480 O   0  0  0  0  0  0  0  0  0  0  0  0
    1.0140    9.3820   -0.6360 C   0  0  0  0  0  0  0  0  0  0  0  0
    2.5090    9.3710   -1.0400 C   0  0  0  0  0  0  0  0  0  0  0  0
    0.9300    8.6650    0.7380 C   0  0  0  0  0  0  0  0  0  0  0  0
   -0.1930   13.0320   -1.9290 C   0  0  1  0  0  0  0  0  0  0  0  0
   -1.7520   13.0360   -1.8930 C   0  0  0  0  0  0  0  0  0  0  0  0
    0.2230   13.7660   -3.2580 C   0  0  0  0  0  0  0  0  0  0  0  0
    1.6030   14.4490   -3.2720 C   0  0  0  0  0  0  0  0  0  0  0  0
    1.7910   15.3300   -2.0330 C   0  0  2  0  0  0  0  0  0  0  0  0
    0.7110   16.4640   -2.0830 C   0  0  0  0  0  0  0  0  0  0  0  0
    5.6211   17.0979   -2.3826 H   0  0  0  0  0  0  0  0  0  0  0  0
    5.0507   16.2290   -3.8477 H   0  0  0  0  0  0  0  0  0  0  0  0
    5.1466   18.0227   -3.8477 H   0  0  0  0  0  0  0  0  0  0  0  0
    2.8231   17.2241   -3.5972 H   0  0  0  0  0  0  0  0  0  0  0  0
    3.0473   18.2344   -0.8717 H   0  0  0  0  0  0  0  0  0  0  0  0
    4.1106   19.1456   -2.0471 H   0  0  0  0  0  0  0  0  0  0  0  0
    2.2521   20.3774   -2.3635 H   0  0  0  0  0  0  0  0  0  0  0  0
    1.8205   19.0047   -3.4665 H   0  0  0  0  0  0  0  0  0  0  0  0
    0.6502   18.0562   -2.1195 H   0  0  0  0  0  0  0  0  0  0  0  0
    1.5624   20.0934    1.6365 H   0  0  0  0  0  0  0  0  0  0  0  0
    2.6880   19.7766    0.2730 H   0  0  0  0  0  0  0  0  0  0  0  0
    1.6715   21.2576    0.2730 H   0  0  0  0  0  0  0  0  0  0  0  0
   -0.1343   18.8987    1.7444 H   0  0  0  0  0  0  0  0  0  0  0  0
   -1.3784   19.1053    0.4653 H   0  0  0  0  0  0  0  0  0  0  0  0
   -0.3232   17.6517    0.4653 H   0  0  0  0  0  0  0  0  0  0  0  0
    3.9703   15.3156   -2.2089 H   0  0  0  0  0  0  0  0  0  0  0  0
    4.2076   16.0661    0.0758 H   0  0  0  0  0  0  0  0  0  0  0  0
    3.0375   17.3833   -0.1543 H   0  0  0  0  0  0  0  0  0  0  0  0
    2.5267   14.9297    1.2187 H   0  0  0  0  0  0  0  0  0  0  0  0
    1.2690   16.0376    0.6769 H   0  0  0  0  0  0  0  0  0  0  0  0
    3.0557   13.0837    0.3617 H   0  0  0  0  0  0  0  0  0  0  0  0
    2.4662   12.4029   -1.1926 H   0  0  0  0  0  0  0  0  0  0  0  0
    3.7381   13.6713   -1.1926 H   0  0  0  0  0  0  0  0  0  0  0  0
   -0.3395   14.7040   -0.5485 H   0  0  0  0  0  0  0  0  0  0  0  0
    0.6544   13.4093    1.4445 H   0  0  0  0  0  0  0  0  0  0  0  0
   -1.0472   13.0611    0.8350 H   0  0  0  0  0  0  0  0  0  0  0  0
    0.4147   10.9639    1.4745 H   0  0  0  0  0  0  0  0  0  0  0  0
    1.3544   11.6574   -2.3896 H   0  0  0  0  0  0  0  0  0  0  0  0
   -1.5197   10.5520   -2.4891 H   0  0  0  0  0  0  0  0  0  0  0  0
   -0.5024   11.0791   -3.9023 H   0  0  0  0  0  0  0  0  0  0  0  0
   -0.5788    8.6163   -3.6705 H   0  0  0  0  0  0  0  0  0  0  0  0
    1.0841    9.2934   -3.4656 H   0  0  0  0  0  0  0  0  0  0  0  0
    0.7297    7.6028   -1.8002 H   0  0  0  0  0  0  0  0  0  0  0  0
   -1.4540    7.4950   -1.5340 H   0  0  0  0  0  0  0  0  0  0  0  0
    3.1335    9.3664   -0.1345 H   0  0  0  0  0  0  0  0  0  0  0  0
    2.7211    8.4713   -1.6362 H   0  0  0  0  0  0  0  0  0  0  0  0
    2.7343   10.2675   -1.6362 H   0  0  0  0  0  0  0  0  0  0  0  0
    1.0170    9.4075    1.5450 H   0  0  0  0  0  0  0  0  0  0  0  0
   -0.0353    8.1442    0.8214 H   0  0  0  0  0  0  0  0  0  0  0  0
    1.7488    7.9352    0.8214 H   0  0  0  0  0  0  0  0  0  0  0  0
   -2.0946   13.0369   -0.8477 H   0  0  0  0  0  0  0  0  0  0  0  0
   -2.1282   13.9351   -2.4029 H   0  0  0  0  0  0  0  0  0  0  0  0
   -2.1328   12.1388   -2.4029 H   0  0  0  0  0  0  0  0  0  0  0  0
    0.2125   13.0207   -4.0669 H   0  0  0  0  0  0  0  0  0  0  0  0
   -0.5036   14.5836   -3.3745 H   0  0  0  0  0  0  0  0  0  0  0  0
    2.3865   13.6770   -3.2869 H   0  0  0  0  0  0  0  0  0  0  0  0
    1.6712   15.0840   -4.1676 H   0  0  0  0  0  0  0  0  0  0  0  0
    0.4354   16.7533   -1.0581 H   0  0  0  0  0  0  0  0  0  0  0  0
    1.1200   17.3368   -2.6130 H   0  0  0  0  0  0  0  0  0  0  0  0
   -0.1807   16.0980   -2.6130 H   0  0  0  0  0  0  0  0  0  0  0  0
  1  2  1  0
  2  3  1  0
  3  4  1  0
  4  5  1  0
  5  6  1  0
  6  7  1  0
  7  8  1  0
  7  9  1  0
  2 10  1  0
 10 11  1  0
 11 12  1  0
 12 13  1  0
 13 14  1  6
 13 15  1  0
 15 16  1  0
 16 17  1  0
 17 18  2  0
 18 19  1  0
 19 20  1  0
 20 21  1  0
 21 22  1  0
 22 23  1  0
 22 24  1  0
 24 25  1  0
 24 26  1  0
 19 27  1  0
 27 28  1  1
 27 29  1  0
 29 30  1  0
 30 31  1  0
 31 32  1  1
  7  5  1  0
 31 10  1  0
 31 13  1  0
 27 15  1  0
 24 18  1  0
  1 33  1  0
  1 34  1  0
  1 35  1  0
  2 36  1  6
  3 37  1  0
  3 38  1  0
  4 39  1  0
  4 40  1  0
  5 41  1  1
  8 42  1  0
  8 43  1  0
  8 44  1  0
  9 45  1  0
  9 46  1  0
  9 47  1  0
 10 48  1  1
 11 49  1  0
 11 50  1  0
 12 51  1  0
 12 52  1  0
 14 53  1  0
 14 54  1  0
 14 55  1  0
 15 56  1  1
 16 57  1  0
 16 58  1  0
 17 59  1  0
 19 60  1  6
 20 61  1  0
 20 62  1  0
 21 63  1  0
 21 64  1  0
 22 65  1  6
 23 66  1  0
 25 67  1  0
 25 68  1  0
 25 69  1  0
 26 70  1  0
 26 71  1  0
 26 72  1  0
 28 73  1  0
 28 74  1  0
 28 75  1  0
 29 76  1  0
 29 77  1  0
 30 78  1  0
 30 79  1  0
 32 80  1  0
 32 81  1  0
 32 82  1  0
M  END
>  <meeko>  (18) 
{"is_sidechain": [false], "intermolecular_energy": 2.731, "internal_energy": -0.839}

$$$$
EPH_relaxed_0001_pdb2pqr_Repair_335_r2_0001_out
     RDKit          3D

 82 86  0  0  0  0  0  0  0  0999 V2000
   -5.2040    5.7700   -1.5570 C   0  0  0  0  0  0  0  0  0  0  0  0
   -5.4480    7.2750   -1.7050 C   0  0  2  0  0  0  0  0  0  0  0  0
   -5.2000    8.0360   -0.3870 C   0  0  0  0  0  0  0  0  0  0  0  0
   -4.1720    9.1630   -0.5110 C   0  0  0  0  0  0  0  0  0  0  0  0
   -2.8060    8.6350   -0.8300 C   0  0  2  0  0  0  0  0  0  0  0  0
   -1.8020    8.9440    0.1450 O   0  0  0  0  0  0  0  0  0  0  0  0
   -1.6210    9.5240   -1.1570 C   0  0  0  0  0  0  0  0  0  0  0  0
   -1.7470   11.0150   -1.1820 C   0  0  0  0  0  0  0  0  0  0  0  0
   -0.4770    8.9380   -1.9250 C   0  0  0  0  0  0  0  0  0  0  0  0
   -6.8700    7.5250   -2.1920 C   0  0  1  0  0  0  0  0  0  0  0  0
   -7.1620    6.8480   -3.5580 C   0  0  0  0  0  0  0  0  0  0  0  0
   -8.6440    6.3940   -3.5240 C   0  0  0  0  0  0  0  0  0  0  0  0
   -9.2440    7.1100   -2.2920 C   0  0  1  0  0  0  0  0  0  0  0  0
   -9.5660    8.5560   -2.7850 C   0  0  0  0  0  0  0  0  0  0  0  0
  -10.4910    6.4320   -1.6370 C   0  0  2  0  0  0  0  0  0  0  0  0
  -11.7300    6.3320   -2.5430 C   0  0  0  0  0  0  0  0  0  0  0  0
  -12.6710    7.4900   -2.4670 C   0  0  0  0  0  0  0  0  0  0  0  0
  -12.6790    8.4290   -1.5030 C   0  0  0  0  0  0  0  0  0  0  0  0
  -11.7370    8.3270   -0.2960 C   0  0  1  0  0  0  0  0  0  0  0  0
  -12.5330    8.6030    1.0070 C   0  0  0  0  0  0  0  0  0  0  0  0
  -13.2840    9.9300    0.9630 C   0  0  0  0  0  0  0  0  0  0  0  0
  -14.2530    9.9700   -0.2160 C   0  0  2  0  0  0  0  0  0  0  0  0
  -15.2870    9.0070    0.0040 O   0  0  0  0  0  0  0  0  0  0  0  0
  -13.5650    9.6960   -1.5830 C   0  0  0  0  0  0  0  0  0  0  0  0
  -12.6640   10.8970   -1.9620 C   0  0  0  0  0  0  0  0  0  0  0  0
  -14.6730    9.6250   -2.6690 C   0  0  0  0  0  0  0  0  0  0  0  0
  -10.8640    7.0020   -0.2080 C   0  0  1  0  0  0  0  0  0  0  0  0
  -11.6670    5.8820    0.5220 C   0  0  0  0  0  0  0  0  0  0  0  0
   -9.5910    7.2830    0.6740 C   0  0  0  0  0  0  0  0  0  0  0  0
   -8.3510    7.8410   -0.0510 C   0  0  0  0  0  0  0  0  0  0  0  0
   -8.0280    7.0130   -1.2990 C   0  0  2  0  0  0  0  0  0  0  0  0
   -7.6780    5.5600   -0.8320 C   0  0  0  0  0  0  0  0  0  0  0  0
   -5.1616    5.5087   -0.4893 H   0  0  0  0  0  0  0  0  0  0  0  0
   -6.0241    5.2166   -2.0377 H   0  0  0  0  0  0  0  0  0  0  0  0
   -4.2510    5.5040   -2.0377 H   0  0  0  0  0  0  0  0  0  0  0  0
   -4.7293    7.6559   -2.4455 H   0  0  0  0  0  0  0  0  0  0  0  0
   -6.1534    8.4709   -0.0525 H   0  0  0  0  0  0  0  0  0  0  0  0
   -4.7948    7.3092    0.3324 H   0  0  0  0  0  0  0  0  0  0  0  0
   -4.4867    9.8458   -1.3140 H   0  0  0  0  0  0  0  0  0  0  0  0
   -4.1200    9.6873    0.4546 H   0  0  0  0  0  0  0  0  0  0  0  0
   -3.2373    7.7624   -1.3424 H   0  0  0  0  0  0  0  0  0  0  0  0
   -1.7793   11.3976   -0.1512 H   0  0  0  0  0  0  0  0  0  0  0  0
   -0.8822   11.4473   -1.7066 H   0  0  0  0  0  0  0  0  0  0  0  0
   -2.6721   11.2961   -1.7066 H   0  0  0  0  0  0  0  0  0  0  0  0
    0.2766    8.5520   -1.2228 H   0  0  0  0  0  0  0  0  0  0  0  0
   -0.8430    8.1164   -2.5582 H   0  0  0  0  0  0  0  0  0  0  0  0
   -0.0241    9.7151   -2.5582 H   0  0  0  0  0  0  0  0  0  0  0  0
   -6.8673    8.6248   -2.2109 H   0  0  0  0  0  0  0  0  0  0  0  0
   -7.0040    7.5646   -4.3775 H   0  0  0  0  0  0  0  0  0  0  0  0
   -6.4906    5.9931   -3.7268 H   0  0  0  0  0  0  0  0  0  0  0  0
   -9.1650    6.7005   -4.4430 H   0  0  0  0  0  0  0  0  0  0  0  0
   -8.7435    5.3004   -3.4600 H   0  0  0  0  0  0  0  0  0  0  0  0
   -9.7128    9.2152   -1.9167 H   0  0  0  0  0  0  0  0  0  0  0  0
   -8.7294    8.9310   -3.3928 H   0  0  0  0  0  0  0  0  0  0  0  0
  -10.4827    8.5405   -3.3928 H   0  0  0  0  0  0  0  0  0  0  0  0
  -10.1457    5.3983   -1.4876 H   0  0  0  0  0  0  0  0  0  0  0  0
  -11.3841    6.2428   -3.5834 H   0  0  0  0  0  0  0  0  0  0  0  0
  -12.2952    5.4568   -2.1902 H   0  0  0  0  0  0  0  0  0  0  0  0
  -13.4207    7.5829   -3.2666 H   0  0  0  0  0  0  0  0  0  0  0  0
  -10.9737    9.1060   -0.4394 H   0  0  0  0  0  0  0  0  0  0  0  0
  -13.2601    7.7909    1.1548 H   0  0  0  0  0  0  0  0  0  0  0  0
  -11.8108    8.6551    1.8351 H   0  0  0  0  0  0  0  0  0  0  0  0
  -13.8496   10.0547    1.8982 H   0  0  0  0  0  0  0  0  0  0  0  0
  -12.5529   10.7433    0.8442 H   0  0  0  0  0  0  0  0  0  0  0  0
  -14.6649   10.9885   -0.2705 H   0  0  0  0  0  0  0  0  0  0  0  0
  -15.0410    8.1960   -0.4730 H   0  0  0  0  0  0  0  0  0  0  0  0
  -12.2983   11.3844   -1.0462 H   0  0  0  0  0  0  0  0  0  0  0  0
  -11.8084   10.5409   -2.5545 H   0  0  0  0  0  0  0  0  0  0  0  0
  -13.2453   11.6188   -2.5545 H   0  0  0  0  0  0  0  0  0  0  0  0
  -15.6583    9.5619   -2.1840 H   0  0  0  0  0  0  0  0  0  0  0  0
  -14.6302   10.5277   -3.2961 H   0  0  0  0  0  0  0  0  0  0  0  0
  -14.5153    8.7351   -3.2961 H   0  0  0  0  0  0  0  0  0  0  0  0
  -11.5729    6.0132    1.6101 H   0  0  0  0  0  0  0  0  0  0  0  0
  -12.7272    5.9447    0.2354 H   0  0  0  0  0  0  0  0  0  0  0  0
  -11.2673    4.8981    0.2354 H   0  0  0  0  0  0  0  0  0  0  0  0
   -9.8774    8.0087    1.4495 H   0  0  0  0  0  0  0  0  0  0  0  0
   -9.2822    6.2982    1.0546 H   0  0  0  0  0  0  0  0  0  0  0  0
   -8.5465    8.8814   -0.3499 H   0  0  0  0  0  0  0  0  0  0  0  0
   -7.4920    7.7928    0.6345 H   0  0  0  0  0  0  0  0  0  0  0  0
   -7.6685    5.5205    0.2672 H   0  0  0  0  0  0  0  0  0  0  0  0
   -8.4330    4.8591   -1.2176 H   0  0  0  0  0  0  0  0  0  0  0  0
   -6.6867    5.2797   -1.2176 H   0  0  0  0  0  0  0  0  0  0  0  0
  1  2  1  0
  2  3  1  0
  3  4  1  0
  4  5  1  0
  5  6  1  0
  6  7  1  0
  7  8  1  0
  7  9  1  0
  2 10  1  0
 10 11  1  0
 11 12  1  0
 12 13  1  0
 13 14  1  6
 13 15  1  0
 15 16  1  0
 16 17  1  0
 17 18  2  0
 18 19  1  0
 19 20  1  0
 20 21  1  0
 21 22  1  0
 22 23  1  0
 22 24  1  0
 24 25  1  0
 24 26  1  0
 19 27  1  0
 27 28  1  1
 27 29  1  0
 29 30  1  0
 30 31  1  0
 31 32  1  1
  7  5  1  0
 31 10  1  0
 31 13  1  0
 27 15  1  0
 24 18  1  0
  1 33  1  0
  1 34  1  0
  1 35  1  0
  2 36  1  6
  3 37  1  0
  3 38  1  0
  4 39  1  0
  4 40  1  0
  5 41  1  6
  8 42  1  0
  8 43  1  0
  8 44  1  0
  9 45  1  0
  9 46  1  0
  9 47  1  0
 10 48  1  6
 11 49  1  0
 11 50  1  0
 12 51  1  0
 12 52  1  0
 14 53  1  0
 14 54  1  0
 14 55  1  0
 15 56  1  1
 16 57  1  0
 16 58  1  0
 17 59  1  0
 19 60  1  6
 20 61  1  0
 20 62  1  0
 21 63  1  0
 21 64  1  0
 22 65  1  6
 23 66  1  0
 25 67  1  0
 25 68  1  0
 25 69  1  0
 26 70  1  0
 26 71  1  0
 26 72  1  0
 28 73  1  0
 28 74  1  0
 28 75  1  0
 29 76  1  0
 29 77  1  0
 30 78  1  0
 30 79  1  0
 32 80  1  0
 32 81  1  0
 32 82  1  0
M  END
>  <meeko>  (19) 
{"is_sidechain": [false], "intermolecular_energy": 2.731, "internal_energy": -0.839}

$$$$
EPH_relaxed_0001_pdb2pqr_Repair_335_r2_0001_out
     RDKit          3D

 82 86  0  0  0  0  0  0  0  0999 V2000
    0.2890   10.4960   -3.4890 C   0  0  0  0  0  0  0  0  0  0  0  0
    1.0580   10.3260   -2.1760 C   0  0  2  0  0  0  0  0  0  0  0  0
    0.1150   10.1480   -0.9700 C   0  0  0  0  0  0  0  0  0  0  0  0
    0.8450    9.8470    0.3420 C   0  0  0  0  0  0  0  0  0  0  0  0
    0.2510   10.6020    1.4930 C   0  0  2  0  0  0  0  0  0  0  0  0
   -0.3320   11.8640    1.1430 O   0  0  0  0  0  0  0  0  0  0  0  0
    0.8120   11.9130    2.0110 C   0  0  0  0  0  0  0  0  0  0  0  0
    2.0190   12.5450    1.3920 C   0  0  0  0  0  0  0  0  0  0  0  0
    0.4870   12.3260    3.4130 C   0  0  0  0  0  0  0  0  0  0  0  0
    1.9720   11.5250   -1.9510 C   0  0  1  0  0  0  0  0  0  0  0  0
    3.3330   11.3860   -2.6840 C   0  0  0  0  0  0  0  0  0  0  0  0
    3.7430   12.8090   -3.1410 C   0  0  0  0  0  0  0  0  0  0  0  0
    2.7860   13.7550   -2.3770 C   0  0  1  0  0  0  0  0  0  0  0  0
    3.4120   13.8950   -0.9540 C   0  0  0  0  0  0  0  0  0  0  0  0
    2.5240   15.1500   -3.0330 C   0  0  2  0  0  0  0  0  0  0  0  0
    3.7660   16.0480   -3.1730 C   0  0  0  0  0  0  0  0  0  0  0  0
    4.0310   16.9540   -2.0170 C   0  0  0  0  0  0  0  0  0  0  0  0
    3.1550   17.2530   -1.0400 C   0  0  0  0  0  0  0  0  0  0  0  0
    1.7120   16.7330   -1.0890 C   0  0  1  0  0  0  0  0  0  0  0  0
    0.7330   17.8910   -0.7630 C   0  0  0  0  0  0  0  0  0  0  0  0
    1.0600   18.5790    0.5580 C   0  0  0  0  0  0  0  0  0  0  0  0
    2.4820   19.1330    0.5480 C   0  0  2  0  0  0  0  0  0  0  0  0
    2.5560   20.1940   -0.4100 O   0  0  0  0  0  0  0  0  0  0  0  0
    3.5560   18.0590    0.2200 C   0  0  0  0  0  0  0  0  0  0  0  0
    3.6840   17.0720    1.4080 C   0  0  0  0  0  0  0  0  0  0  0  0
    4.9280   18.7750    0.1020 C   0  0  0  0  0  0  0  0  0  0  0  0
    1.3060   15.9420   -2.4070 C   0  0  1  0  0  0  0  0  0  0  0  0
    0.8170   16.9420   -3.4980 C   0  0  0  0  0  0  0  0  0  0  0  0
    0.0830   15.0030   -2.0860 C   0  0  0  0  0  0  0  0  0  0  0  0
    0.4100   13.5940   -1.5540 C   0  0  0  0  0  0  0  0  0  0  0  0
    1.4630   12.9080   -2.4300 C   0  0  2  0  0  0  0  0  0  0  0  0
    0.8530   12.7330   -3.8620 C   0  0  0  0  0  0  0  0  0  0  0  0
   -0.7636   10.7287   -3.2700 H   0  0  0  0  0  0  0  0  0  0  0  0
    0.7329   11.3177   -4.0702 H   0  0  0  0  0  0  0  0  0  0  0  0
    0.3452    9.5638   -4.0702 H   0  0  0  0  0  0  0  0  0  0  0  0
    1.6607    9.4098   -2.2610 H   0  0  0  0  0  0  0  0  0  0  0  0
   -0.4631   11.0750   -0.8412 H   0  0  0  0  0  0  0  0  0  0  0  0
   -0.5260    9.2810   -1.1879 H   0  0  0  0  0  0  0  0  0  0  0  0
    0.7758    8.7689    0.5492 H   0  0  0  0  0  0  0  0  0  0  0  0
    1.8935   10.1606    0.2308 H   0  0  0  0  0  0  0  0  0  0  0  0
   -0.0205    9.6642    1.9997 H   0  0  0  0  0  0  0  0  0  0  0  0
    2.6948   12.8988    2.1845 H   0  0  0  0  0  0  0  0  0  0  0  0
    2.5413   11.8047    0.7682 H   0  0  0  0  0  0  0  0  0  0  0  0
    1.7081   13.3960    0.7682 H   0  0  0  0  0  0  0  0  0  0  0  0
    1.0080   11.6640    4.1204 H   0  0  0  0  0  0  0  0  0  0  0  0
    0.8130   13.3641    3.5743 H   0  0  0  0  0  0  0  0  0  0  0  0
   -0.5987   12.2533    3.5743 H   0  0  0  0  0  0  0  0  0  0  0  0
    2.0325   11.5056   -0.8528 H   0  0  0  0  0  0  0  0  0  0  0  0
    4.0907   10.9747   -2.0009 H   0  0  0  0  0  0  0  0  0  0  0  0
    3.2507   10.7040   -3.5431 H   0  0  0  0  0  0  0  0  0  0  0  0
    4.7896   13.0164   -2.8734 H   0  0  0  0  0  0  0  0  0  0  0  0
    3.6707   12.9340   -4.2315 H   0  0  0  0  0  0  0  0  0  0  0  0
    2.6364   13.7215   -0.1935 H   0  0  0  0  0  0  0  0  0  0  0  0
    4.2164   13.1546   -0.8328 H   0  0  0  0  0  0  0  0  0  0  0  0
    3.8244   14.9076   -0.8328 H   0  0  0  0  0  0  0  0  0  0  0  0
    2.2342   14.8781   -4.0587 H   0  0  0  0  0  0  0  0  0  0  0  0
    4.6432   15.3971   -3.3028 H   0  0  0  0  0  0  0  0  0  0  0  0
    3.5723   16.7032   -4.0351 H   0  0  0  0  0  0  0  0  0  0  0  0
    5.0272   17.4168   -1.9585 H   0  0  0  0  0  0  0  0  0  0  0  0
    1.6410   15.9561   -0.3135 H   0  0  0  0  0  0  0  0  0  0  0  0
    0.7861   18.6356   -1.5709 H   0  0  0  0  0  0  0  0  0  0  0  0
   -0.2755   17.4606   -0.6746 H   0  0  0  0  0  0  0  0  0  0  0  0
    0.3527   19.4062    0.7177 H   0  0  0  0  0  0  0  0  0  0  0  0
    0.9773   17.8398    1.3684 H   0  0  0  0  0  0  0  0  0  0  0  0
    2.7014   19.4965    1.5628 H   0  0  0  0  0  0  0  0  0  0  0  0
    2.6370   19.7910   -1.2900 H   0  0  0  0  0  0  0  0  0  0  0  0
    3.6120   17.6269    2.3551 H   0  0  0  0  0  0  0  0  0  0  0  0
    2.8747   16.3288    1.3561 H   0  0  0  0  0  0  0  0  0  0  0  0
    4.6561   16.5598    1.3561 H   0  0  0  0  0  0  0  0  0  0  0  0
    5.3220   18.9806    1.1082 H   0  0  0  0  0  0  0  0  0  0  0  0
    5.6327   18.1297   -0.4429 H   0  0  0  0  0  0  0  0  0  0  0  0
    4.8016   19.7222   -0.4429 H   0  0  0  0  0  0  0  0  0  0  0  0
    0.3831   17.8294   -3.0140 H   0  0  0  0  0  0  0  0  0  0  0  0
    1.6683   17.2457   -4.1250 H   0  0  0  0  0  0  0  0  0  0  0  0
    0.0546   16.4566   -4.1250 H   0  0  0  0  0  0  0  0  0  0  0  0
   -0.5356   15.5089   -1.3301 H   0  0  0  0  0  0  0  0  0  0  0  0
   -0.4145   14.8374   -3.0530 H   0  0  0  0  0  0  0  0  0  0  0  0
    0.7952   13.6775   -0.5270 H   0  0  0  0  0  0  0  0  0  0  0  0
   -0.5092   12.9900   -1.5725 H   0  0  0  0  0  0  0  0  0  0  0  0
   -0.2012   12.4306   -3.7770 H   0  0  0  0  0  0  0  0  0  0  0  0
    0.9182   13.6861   -4.4073 H   0  0  0  0  0  0  0  0  0  0  0  0
    1.4136   11.9594   -4.4073 H   0  0  0  0  0  0  0  0  0  0  0  0
  1  2  1  0
  2  3  1  0
  3  4  1  0
  4  5  1  0
  5  6  1  0
  6  7  1  0
  7  8  1  0
  7  9  1  0
  2 10  1  0
 10 11  1  0
 11 12  1  0
 12 13  1  0
 13 14  1  1
 13 15  1  0
 15 16  1  0
 16 17  1  0
 17 18  2  0
 18 19  1  0
 19 20  1  0
 20 21  1  0
 21 22  1  0
 22 23  1  0
 22 24  1  0
 24 25  1  0
 24 26  1  0
 19 27  1  0
 27 28  1  6
 27 29  1  0
 29 30  1  0
 30 31  1  0
 31 32  1  6
  7  5  1  0
 31 10  1  0
 31 13  1  0
 27 15  1  0
 24 18  1  0
  1 33  1  0
  1 34  1  0
  1 35  1  0
  2 36  1  6
  3 37  1  0
  3 38  1  0
  4 39  1  0
  4 40  1  0
  5 41  1  1
  8 42  1  0
  8 43  1  0
  8 44  1  0
  9 45  1  0
  9 46  1  0
  9 47  1  0
 10 48  1  1
 11 49  1  0
 11 50  1  0
 12 51  1  0
 12 52  1  0
 14 53  1  0
 14 54  1  0
 14 55  1  0
 15 56  1  6
 16 57  1  0
 16 58  1  0
 17 59  1  0
 19 60  1  1
 20 61  1  0
 20 62  1  0
 21 63  1  0
 21 64  1  0
 22 65  1  1
 23 66  1  0
 25 67  1  0
 25 68  1  0
 25 69  1  0
 26 70  1  0
 26 71  1  0
 26 72  1  0
 28 73  1  0
 28 74  1  0
 28 75  1  0
 29 76  1  0
 29 77  1  0
 30 78  1  0
 30 79  1  0
 32 80  1  0
 32 81  1  0
 32 82  1  0
M  END
>  <meeko>  (20) 
{"is_sidechain": [false], "intermolecular_energy": 2.731, "internal_energy": -0.839}

$$$$
