EPH_relaxed_0001_pdb2pqr_Repair_86_r2_0001_out
     RDKit          3D

 82 86  0  0  0  0  0  0  0  0999 V2000
   -1.3400    8.3580   -1.6480 C   0  0  0  0  0  0  0  0  0  0  0  0
   -1.9190    9.0890   -0.4330 C   0  0  2  0  0  0  0  0  0  0  0  0
   -3.3840    9.5150   -0.6560 C   0  0  0  0  0  0  0  0  0  0  0  0
   -4.4050    8.5480   -0.0520 C   0  0  0  0  0  0  0  0  0  0  0  0
   -4.7490    7.4400   -1.0010 C   0  0  2  0  0  0  0  0  0  0  0  0
   -4.7250    7.8090   -2.3860 O   0  0  0  0  0  0  0  0  0  0  0  0
   -6.0040    7.4280   -1.8540 C   0  0  0  0  0  0  0  0  0  0  0  0
   -6.9970    8.5460   -1.7970 C   0  0  0  0  0  0  0  0  0  0  0  0
   -6.5050    6.1150   -2.3710 C   0  0  0  0  0  0  0  0  0  0  0  0
   -1.0660   10.3080   -0.1040 C   0  0  1  0  0  0  0  0  0  0  0  0
    0.0130   10.0100    0.9710 C   0  0  0  0  0  0  0  0  0  0  0  0
    1.2560   10.8600    0.6050 C   0  0  0  0  0  0  0  0  0  0  0  0
    0.7460   11.8590   -0.4600 C   0  0  1  0  0  0  0  0  0  0  0  0
    0.0520   12.9950    0.3550 C   0  0  0  0  0  0  0  0  0  0  0  0
    1.8190   12.4280   -1.4440 C   0  0  2  0  0  0  0  0  0  0  0  0
    2.9360   13.2560   -0.7850 C   0  0  0  0  0  0  0  0  0  0  0  0
    2.6660   14.7200   -0.6780 C   0  0  0  0  0  0  0  0  0  0  0  0
    1.7050   15.3890   -1.3430 C   0  0  0  0  0  0  0  0  0  0  0  0
    0.8310   14.6810   -2.3860 C   0  0  1  0  0  0  0  0  0  0  0  0
    0.7400   15.5550   -3.6640 C   0  0  0  0  0  0  0  0  0  0  0  0
    0.2640   16.9740   -3.3710 C   0  0  0  0  0  0  0  0  0  0  0  0
    1.1920   17.6650   -2.3750 C   0  0  2  0  0  0  0  0  0  0  0  0
    2.4680   17.8600   -2.9920 O   0  0  0  0  0  0  0  0  0  0  0  0
    1.3690   16.8720   -1.0500 C   0  0  0  0  0  0  0  0  0  0  0  0
    0.0520   16.9200   -0.2350 C   0  0  0  0  0  0  0  0  0  0  0  0
    2.4360   17.6050   -0.1930 C   0  0  0  0  0  0  0  0  0  0  0  0
    1.2150   13.1720   -2.7030 C   0  0  1  0  0  0  0  0  0  0  0  0
    2.3060   13.1240   -3.8160 C   0  0  0  0  0  0  0  0  0  0  0  0
   -0.0470   12.4320   -3.2860 C   0  0  0  0  0  0  0  0  0  0  0  0
   -1.0070   11.7880   -2.2680 C   0  0  0  0  0  0  0  0  0  0  0  0
   -0.2400   10.9300   -1.2580 C   0  0  2  0  0  0  0  0  0  0  0  0
    0.4510    9.7650   -2.0460 C   0  0  0  0  0  0  0  0  0  0  0  0
   -0.6906    7.5381   -1.3074 H   0  0  0  0  0  0  0  0  0  0  0  0
   -2.1608    7.9478   -2.2546 H   0  0  0  0  0  0  0  0  0  0  0  0
   -0.7527    9.0631   -2.2546 H   0  0  0  0  0  0  0  0  0  0  0  0
   -1.9046    8.3867    0.4135 H   0  0  0  0  0  0  0  0  0  0  0  0
   -3.5311   10.5049   -0.1995 H   0  0  0  0  0  0  0  0  0  0  0  0
   -3.5541    9.5243   -1.7427 H   0  0  0  0  0  0  0  0  0  0  0  0
   -3.9838    8.1128    0.8663 H   0  0  0  0  0  0  0  0  0  0  0  0
   -5.3245    9.1117    0.1643 H   0  0  0  0  0  0  0  0  0  0  0  0
   -4.3098    6.6924   -0.3241 H   0  0  0  0  0  0  0  0  0  0  0  0
   -7.2141    8.7904   -0.7467 H   0  0  0  0  0  0  0  0  0  0  0  0
   -6.5819    9.4311   -2.3012 H   0  0  0  0  0  0  0  0  0  0  0  0
   -7.9249    8.2383   -2.3012 H   0  0  0  0  0  0  0  0  0  0  0  0
   -6.7553    5.4590   -1.5243 H   0  0  0  0  0  0  0  0  0  0  0  0
   -7.4030    6.2809   -2.9843 H   0  0  0  0  0  0  0  0  0  0  0  0
   -5.7247    5.6406   -2.9843 H   0  0  0  0  0  0  0  0  0  0  0  0
   -1.8555   11.0055    0.2125 H   0  0  0  0  0  0  0  0  0  0  0  0
   -0.3578   10.2909    1.9678 H   0  0  0  0  0  0  0  0  0  0  0  0
    0.2607    8.9385    0.9954 H   0  0  0  0  0  0  0  0  0  0  0  0
    1.6349   11.3943    1.4887 H   0  0  0  0  0  0  0  0  0  0  0  0
    2.0882   10.2437    0.2340 H   0  0  0  0  0  0  0  0  0  0  0  0
    0.1713   12.7998    1.4309 H   0  0  0  0  0  0  0  0  0  0  0  0
    0.5143   13.9611    0.1042 H   0  0  0  0  0  0  0  0  0  0  0  0
   -1.0186   13.0247    0.1042 H   0  0  0  0  0  0  0  0  0  0  0  0
    2.3046   11.5137   -1.8159 H   0  0  0  0  0  0  0  0  0  0  0  0
    3.0951   12.8646    0.2306 H   0  0  0  0  0  0  0  0  0  0  0  0
    3.8151   13.1557   -1.4386 H   0  0  0  0  0  0  0  0  0  0  0  0
    3.3062   15.3017    0.0016 H   0  0  0  0  0  0  0  0  0  0  0  0
   -0.1656   14.5811   -1.9312 H   0  0  0  0  0  0  0  0  0  0  0  0
    1.7362   15.6062   -4.1276 H   0  0  0  0  0  0  0  0  0  0  0  0
    0.0039   15.0884   -4.3352 H   0  0  0  0  0  0  0  0  0  0  0  0
    0.2489   17.5496   -4.3083 H   0  0  0  0  0  0  0  0  0  0  0  0
   -0.7446   16.9234   -2.9349 H   0  0  0  0  0  0  0  0  0  0  0  0
    0.7293   18.6261   -2.1062 H   0  0  0  0  0  0  0  0  0  0  0  0
    2.3290   17.8850   -3.9540 H   0  0  0  0  0  0  0  0  0  0  0  0
    0.2855   16.9115    0.8399 H   0  0  0  0  0  0  0  0  0  0  0  0
   -0.4995   17.8388   -0.4832 H   0  0  0  0  0  0  0  0  0  0  0  0
   -0.5649   16.0437   -0.4832 H   0  0  0  0  0  0  0  0  0  0  0  0
    2.2161   17.4540    0.8742 H   0  0  0  0  0  0  0  0  0  0  0  0
    3.4325   17.1999   -0.4230 H   0  0  0  0  0  0  0  0  0  0  0  0
    2.4154   18.6805   -0.4230 H   0  0  0  0  0  0  0  0  0  0  0  0
    3.3021   13.0802   -3.3514 H   0  0  0  0  0  0  0  0  0  0  0  0
    2.1533   12.2317   -4.4409 H   0  0  0  0  0  0  0  0  0  0  0  0
    2.2323   14.0263   -4.4409 H   0  0  0  0  0  0  0  0  0  0  0  0
   -0.6233   13.1658   -3.8686 H   0  0  0  0  0  0  0  0  0  0  0  0
    0.3567   11.5927   -3.8714 H   0  0  0  0  0  0  0  0  0  0  0  0
   -1.5461   12.5816   -1.7299 H   0  0  0  0  0  0  0  0  0  0  0  0
   -1.7131   11.1429   -2.8114 H   0  0  0  0  0  0  0  0  0  0  0  0
    0.8787    9.0439   -1.3339 H   0  0  0  0  0  0  0  0  0  0  0  0
   -0.2928    9.2585   -2.6786 H   0  0  0  0  0  0  0  0  0  0  0  0
    1.2521   10.1749   -2.6786 H   0  0  0  0  0  0  0  0  0  0  0  0
  1  2  1  0
  2  3  1  0
  3  4  1  0
  4  5  1  0
  5  6  1  0
  6  7  1  0
  7  8  1  0
  7  9  1  0
  2 10  1  0
 10 11  1  0
 11 12  1  0
 12 13  1  0
 13 14  1  1
 13 15  1  0
 15 16  1  0
 16 17  1  0
 17 18  2  0
 18 19  1  0
 19 20  1  0
 20 21  1  0
 21 22  1  0
 22 23  1  0
 22 24  1  0
 24 25  1  0
 24 26  1  0
 19 27  1  0
 27 28  1  6
 27 29  1  0
 29 30  1  0
 30 31  1  0
 31 32  1  6
  7  5  1  0
 31 10  1  0
 31 13  1  0
 27 15  1  0
 24 18  1  0
  1 33  1  0
  1 34  1  0
  1 35  1  0
  2 36  1  1
  3 37  1  0
  3 38  1  0
  4 39  1  0
  4 40  1  0
  5 41  1  6
  8 42  1  0
  8 43  1  0
  8 44  1  0
  9 45  1  0
  9 46  1  0
  9 47  1  0
 10 48  1  1
 11 49  1  0
 11 50  1  0
 12 51  1  0
 12 52  1  0
 14 53  1  0
 14 54  1  0
 14 55  1  0
 15 56  1  6
 16 57  1  0
 16 58  1  0
 17 59  1  0
 19 60  1  1
 20 61  1  0
 20 62  1  0
 21 63  1  0
 21 64  1  0
 22 65  1  1
 23 66  1  0
 25 67  1  0
 25 68  1  0
 25 69  1  0
 26 70  1  0
 26 71  1  0
 26 72  1  0
 28 73  1  0
 28 74  1  0
 28 75  1  0
 29 76  1  0
 29 77  1  0
 30 78  1  0
 30 79  1  0
 32 80  1  0
 32 81  1  0
 32 82  1  0
M  END
>  <meeko>  (1) 
{"is_sidechain": [false], "intermolecular_energy": 2.731, "internal_energy": -0.839}

$$$$
EPH_relaxed_0001_pdb2pqr_Repair_86_r2_0001_out
     RDKit          3D

 82 86  0  0  0  0  0  0  0  0999 V2000
    4.1780   17.5880   -0.5970 C   0  0  0  0  0  0  0  0  0  0  0  0
    2.8190   18.1480   -0.1690 C   0  0  2  0  0  0  0  0  0  0  0  0
    2.8780   18.8220    1.2160 C   0  0  0  0  0  0  0  0  0  0  0  0
    4.2440   18.7070    1.8990 C   0  0  0  0  0  0  0  0  0  0  0  0
    4.2120   19.2450    3.2970 C   0  0  2  0  0  0  0  0  0  0  0  0
    5.2430   20.1940    3.5970 O   0  0  0  0  0  0  0  0  0  0  0  0
    5.2880   18.9580    4.3280 C   0  0  0  0  0  0  0  0  0  0  0  0
    6.4720   18.1020    4.0040 C   0  0  0  0  0  0  0  0  0  0  0  0
    4.9460   19.1030    5.7780 C   0  0  0  0  0  0  0  0  0  0  0  0
    1.7770   17.0360   -0.1630 C   0  0  1  0  0  0  0  0  0  0  0  0
    0.3500   17.5520   -0.4870 C   0  0  0  0  0  0  0  0  0  0  0  0
   -0.3580   16.4330   -1.2930 C   0  0  0  0  0  0  0  0  0  0  0  0
    0.5510   15.1940   -1.1220 C   0  0  1  0  0  0  0  0  0  0  0  0
    0.1690   14.6050    0.2720 C   0  0  0  0  0  0  0  0  0  0  0  0
    0.4650   14.1130   -2.2480 C   0  0  2  0  0  0  0  0  0  0  0  0
   -0.9100   13.4410   -2.4040 C   0  0  0  0  0  0  0  0  0  0  0  0
   -1.1130   12.2060   -1.5910 C   0  0  0  0  0  0  0  0  0  0  0  0
   -0.1390   11.4970   -0.9890 C   0  0  0  0  0  0  0  0  0  0  0  0
    1.3380   11.8690   -1.1790 C   0  0  1  0  0  0  0  0  0  0  0  0
    2.1580   10.5890   -1.4850 C   0  0  0  0  0  0  0  0  0  0  0  0
    1.9610    9.5010   -0.4340 C   0  0  0  0  0  0  0  0  0  0  0  0
    0.4880    9.1180   -0.3160 C   0  0  2  0  0  0  0  0  0  0  0  0
    0.0770    8.4860   -1.5320 O   0  0  0  0  0  0  0  0  0  0  0  0
   -0.4390   10.3290   -0.0170 C   0  0  0  0  0  0  0  0  0  0  0  0
   -0.1960   10.8270    1.4290 C   0  0  0  0  0  0  0  0  0  0  0  0
   -1.9080    9.8300   -0.0640 C   0  0  0  0  0  0  0  0  0  0  0  0
    1.6300   13.0430   -2.2100 C   0  0  1  0  0  0  0  0  0  0  0  0
    1.7520   12.4650   -3.6530 C   0  0  0  0  0  0  0  0  0  0  0  0
    3.0250   13.6890   -1.8710 C   0  0  0  0  0  0  0  0  0  0  0  0
    3.0290   14.8330   -0.8390 C   0  0  0  0  0  0  0  0  0  0  0  0
    1.9640   15.8810   -1.1780 C   0  0  2  0  0  0  0  0  0  0  0  0
    2.3350   16.5060   -2.5660 C   0  0  0  0  0  0  0  0  0  0  0  0
    4.7716   17.3434    0.2962 H   0  0  0  0  0  0  0  0  0  0  0  0
    4.0273   16.6787   -1.1974 H   0  0  0  0  0  0  0  0  0  0  0  0
    4.7116   18.3395   -1.1974 H   0  0  0  0  0  0  0  0  0  0  0  0
    2.5350   18.9199   -0.8994 H   0  0  0  0  0  0  0  0  0  0  0  0
    2.6397   19.8889    1.0935 H   0  0  0  0  0  0  0  0  0  0  0  0
    2.1526   18.3010    1.8582 H   0  0  0  0  0  0  0  0  0  0  0  0
    4.5382   17.6476    1.9315 H   0  0  0  0  0  0  0  0  0  0  0  0
    4.9676   19.2997    1.3201 H   0  0  0  0  0  0  0  0  0  0  0  0
    3.1159   19.1588    3.3305 H   0  0  0  0  0  0  0  0  0  0  0  0
    6.9441   17.7607    4.9371 H   0  0  0  0  0  0  0  0  0  0  0  0
    6.1449   17.2302    3.4184 H   0  0  0  0  0  0  0  0  0  0  0  0
    7.1973   18.6859    3.4184 H   0  0  0  0  0  0  0  0  0  0  0  0
    5.7872   18.7464    6.3906 H   0  0  0  0  0  0  0  0  0  0  0  0
    4.7503   20.1615    6.0045 H   0  0  0  0  0  0  0  0  0  0  0  0
    4.0492   18.5077    6.0045 H   0  0  0  0  0  0  0  0  0  0  0  0
    1.9131   16.6620    0.8625 H   0  0  0  0  0  0  0  0  0  0  0  0
   -0.2001   17.7543    0.4439 H   0  0  0  0  0  0  0  0  0  0  0  0
    0.3899   18.4885   -1.0627 H   0  0  0  0  0  0  0  0  0  0  0  0
   -1.3614   16.2374   -0.8869 H   0  0  0  0  0  0  0  0  0  0  0  0
   -0.4980   16.7049   -2.3496 H   0  0  0  0  0  0  0  0  0  0  0  0
    0.5833   15.2438    1.0660 H   0  0  0  0  0  0  0  0  0  0  0  0
   -0.9263   14.5668    0.3662 H   0  0  0  0  0  0  0  0  0  0  0  0
    0.5808   13.5894    0.3662 H   0  0  0  0  0  0  0  0  0  0  0  0
    0.6104   14.7109   -3.1598 H   0  0  0  0  0  0  0  0  0  0  0  0
   -1.6797   14.1704   -2.1117 H   0  0  0  0  0  0  0  0  0  0  0  0
   -0.9770   13.1267   -3.4560 H   0  0  0  0  0  0  0  0  0  0  0  0
   -2.1452   11.8444   -1.4736 H   0  0  0  0  0  0  0  0  0  0  0  0
    1.6682   12.3043   -0.2242 H   0  0  0  0  0  0  0  0  0  0  0  0
    1.8444   10.1951   -2.4630 H   0  0  0  0  0  0  0  0  0  0  0  0
    3.2224   10.8665   -1.4819 H   0  0  0  0  0  0  0  0  0  0  0  0
    2.5422    8.6126   -0.7220 H   0  0  0  0  0  0  0  0  0  0  0  0
    2.3032    9.8854    0.5382 H   0  0  0  0  0  0  0  0  0  0  0  0
    0.3935    8.4330    0.5395 H   0  0  0  0  0  0  0  0  0  0  0  0
   -0.0690    9.1850   -2.1920 H   0  0  0  0  0  0  0  0  0  0  0  0
   -0.5631   10.0746    2.1425 H   0  0  0  0  0  0  0  0  0  0  0  0
    0.8811   10.9862    1.5858 H   0  0  0  0  0  0  0  0  0  0  0  0
   -0.7333   11.7739    1.5858 H   0  0  0  0  0  0  0  0  0  0  0  0
   -2.2848    9.7020    0.9615 H   0  0  0  0  0  0  0  0  0  0  0  0
   -2.5290   10.5676   -0.5934 H   0  0  0  0  0  0  0  0  0  0  0  0
   -1.9513    8.8667   -0.5934 H   0  0  0  0  0  0  0  0  0  0  0  0
    1.9789   11.3900   -3.5994 H   0  0  0  0  0  0  0  0  0  0  0  0
    0.8028   12.6131   -4.1888 H   0  0  0  0  0  0  0  0  0  0  0  0
    2.5604   12.9841   -4.1888 H   0  0  0  0  0  0  0  0  0  0  0  0
    3.6763   12.8908   -1.4854 H   0  0  0  0  0  0  0  0  0  0  0  0
    3.3652   14.1483   -2.8108 H   0  0  0  0  0  0  0  0  0  0  0  0
    2.8213   14.4185    0.1585 H   0  0  0  0  0  0  0  0  0  0  0  0
    4.0163   15.3178   -0.8565 H   0  0  0  0  0  0  0  0  0  0  0  0
    2.8908   17.4423   -2.4097 H   0  0  0  0  0  0  0  0  0  0  0  0
    2.9597   15.7988   -3.1314 H   0  0  0  0  0  0  0  0  0  0  0  0
    1.4150   16.7157   -3.1314 H   0  0  0  0  0  0  0  0  0  0  0  0
  1  2  1  0
  2  3  1  0
  3  4  1  0
  4  5  1  0
  5  6  1  0
  6  7  1  0
  7  8  1  0
  7  9  1  0
  2 10  1  0
 10 11  1  0
 11 12  1  0
 12 13  1  0
 13 14  1  1
 13 15  1  0
 15 16  1  0
 16 17  1  0
 17 18  2  0
 18 19  1  0
 19 20  1  0
 20 21  1  0
 21 22  1  0
 22 23  1  0
 22 24  1  0
 24 25  1  0
 24 26  1  0
 19 27  1  0
 27 28  1  6
 27 29  1  0
 29 30  1  0
 30 31  1  0
 31 32  1  6
  7  5  1  0
 31 10  1  0
 31 13  1  0
 27 15  1  0
 24 18  1  0
  1 33  1  0
  1 34  1  0
  1 35  1  0
  2 36  1  6
  3 37  1  0
  3 38  1  0
  4 39  1  0
  4 40  1  0
  5 41  1  1
  8 42  1  0
  8 43  1  0
  8 44  1  0
  9 45  1  0
  9 46  1  0
  9 47  1  0
 10 48  1  1
 11 49  1  0
 11 50  1  0
 12 51  1  0
 12 52  1  0
 14 53  1  0
 14 54  1  0
 14 55  1  0
 15 56  1  6
 16 57  1  0
 16 58  1  0
 17 59  1  0
 19 60  1  1
 20 61  1  0
 20 62  1  0
 21 63  1  0
 21 64  1  0
 22 65  1  1
 23 66  1  0
 25 67  1  0
 25 68  1  0
 25 69  1  0
 26 70  1  0
 26 71  1  0
 26 72  1  0
 28 73  1  0
 28 74  1  0
 28 75  1  0
 29 76  1  0
 29 77  1  0
 30 78  1  0
 30 79  1  0
 32 80  1  0
 32 81  1  0
 32 82  1  0
M  END
>  <meeko>  (2) 
{"is_sidechain": [false], "intermolecular_energy": 2.731, "internal_energy": -0.839}

$$$$
EPH_relaxed_0001_pdb2pqr_Repair_86_r2_0001_out
     RDKit          3D

 82 86  0  0  0  0  0  0  0  0999 V2000
    2.3470   17.9510   -2.6850 C   0  0  0  0  0  0  0  0  0  0  0  0
    1.0440   17.5720   -1.9750 C   0  0  2  0  0  0  0  0  0  0  0  0
    1.1810   17.6300   -0.4410 C   0  0  0  0  0  0  0  0  0  0  0  0
    0.8730   19.0070    0.1530 C   0  0  0  0  0  0  0  0  0  0  0  0
   -0.5660   19.1300    0.5530 C   0  0  2  0  0  0  0  0  0  0  0  0
   -1.4570   18.2460   -0.1390 O   0  0  0  0  0  0  0  0  0  0  0  0
   -1.6500   19.6500   -0.3720 C   0  0  0  0  0  0  0  0  0  0  0  0
   -1.3410   20.0840   -1.7710 C   0  0  0  0  0  0  0  0  0  0  0  0
   -2.9070   20.1940    0.2330 C   0  0  0  0  0  0  0  0  0  0  0  0
    0.6040   16.1780   -2.4070 C   0  0  1  0  0  0  0  0  0  0  0  0
    0.7050   15.9680   -3.9410 C   0  0  0  0  0  0  0  0  0  0  0  0
    1.1140   14.4890   -4.1650 C   0  0  0  0  0  0  0  0  0  0  0  0
    0.9120   13.8160   -2.7870 C   0  0  1  0  0  0  0  0  0  0  0  0
   -0.6180   13.5130   -2.7080 C   0  0  0  0  0  0  0  0  0  0  0  0
    1.7680   12.5380   -2.5090 C   0  0  2  0  0  0  0  0  0  0  0  0
    1.4950   11.3520   -3.4510 C   0  0  0  0  0  0  0  0  0  0  0  0
    0.4390   10.4030   -2.9910 C   0  0  0  0  0  0  0  0  0  0  0  0
   -0.0620   10.3340   -1.7440 C   0  0  0  0  0  0  0  0  0  0  0  0
    0.5080   11.2060   -0.6170 C   0  0  1  0  0  0  0  0  0  0  0  0
    0.7360   10.3360    0.6460 C   0  0  0  0  0  0  0  0  0  0  0  0
   -0.5190    9.5810    1.0720 C   0  0  0  0  0  0  0  0  0  0  0  0
   -1.0210    8.6810   -0.0540 C   0  0  2  0  0  0  0  0  0  0  0  0
   -0.0640    7.6410   -0.2750 O   0  0  0  0  0  0  0  0  0  0  0  0
   -1.2780    9.4460   -1.3830 C   0  0  0  0  0  0  0  0  0  0  0  0
   -2.5180   10.3610   -1.2250 C   0  0  0  0  0  0  0  0  0  0  0  0
   -1.6440    8.4020   -2.4720 C   0  0  0  0  0  0  0  0  0  0  0  0
    1.7800   12.0820   -0.9940 C   0  0  1  0  0  0  0  0  0  0  0  0
    3.0800   11.2450   -0.7910 C   0  0  0  0  0  0  0  0  0  0  0  0
    1.8770   13.3010   -0.0030 C   0  0  0  0  0  0  0  0  0  0  0  0
    1.1050   14.5760   -0.3920 C   0  0  0  0  0  0  0  0  0  0  0  0
    1.3990   14.9740   -1.8410 C   0  0  2  0  0  0  0  0  0  0  0  0
    2.9270   15.3060   -1.9460 C   0  0  0  0  0  0  0  0  0  0  0  0
    3.1206   18.1760   -1.9361 H   0  0  0  0  0  0  0  0  0  0  0  0
    2.6790   17.1122   -3.3144 H   0  0  0  0  0  0  0  0  0  0  0  0
    2.1773   18.8370   -3.3144 H   0  0  0  0  0  0  0  0  0  0  0  0
    0.2813   18.3094   -2.2659 H   0  0  0  0  0  0  0  0  0  0  0  0
    0.4856   16.8992   -0.0024 H   0  0  0  0  0  0  0  0  0  0  0  0
    2.2312   17.4051   -0.2034 H   0  0  0  0  0  0  0  0  0  0  0  0
    1.5040   19.1613    1.0407 H   0  0  0  0  0  0  0  0  0  0  0  0
    1.0808   19.7658   -0.6158 H   0  0  0  0  0  0  0  0  0  0  0  0
   -0.2817   19.3992    1.5809 H   0  0  0  0  0  0  0  0  0  0  0  0
   -0.7032   20.9798   -1.7446 H   0  0  0  0  0  0  0  0  0  0  0  0
   -0.8147   19.2746   -2.2982 H   0  0  0  0  0  0  0  0  0  0  0  0
   -2.2780   20.3165   -2.2982 H   0  0  0  0  0  0  0  0  0  0  0  0
   -2.8302   20.1608    1.3298 H   0  0  0  0  0  0  0  0  0  0  0  0
   -3.0504   21.2347   -0.0932 H   0  0  0  0  0  0  0  0  0  0  0  0
   -3.7638   19.5862   -0.0932 H   0  0  0  0  0  0  0  0  0  0  0  0
   -0.4200   16.1753   -2.0052 H   0  0  0  0  0  0  0  0  0  0  0  0
   -0.2671   16.1681   -4.4154 H   0  0  0  0  0  0  0  0  0  0  0  0
    1.4422   16.6529   -4.3854 H   0  0  0  0  0  0  0  0  0  0  0  0
    0.4719   14.0192   -4.9246 H   0  0  0  0  0  0  0  0  0  0  0  0
    2.1474   14.3923   -4.5293 H   0  0  0  0  0  0  0  0  0  0  0  0
   -0.9258   13.4521   -1.6537 H   0  0  0  0  0  0  0  0  0  0  0  0
   -1.1774   14.3178   -3.2073 H   0  0  0  0  0  0  0  0  0  0  0  0
   -0.8285   12.5557   -3.2073 H   0  0  0  0  0  0  0  0  0  0  0  0
    2.7860   12.8803   -2.7468 H   0  0  0  0  0  0  0  0  0  0  0  0
    1.1870   11.7565   -4.4265 H   0  0  0  0  0  0  0  0  0  0  0  0
    2.4292   10.7726   -3.4897 H   0  0  0  0  0  0  0  0  0  0  0  0
    0.0358    9.7000   -3.7348 H   0  0  0  0  0  0  0  0  0  0  0  0
   -0.2542   11.9715   -0.4093 H   0  0  0  0  0  0  0  0  0  0  0  0
    1.5308    9.6062    0.4324 H   0  0  0  0  0  0  0  0  0  0  0  0
    1.0151   11.0101    1.4692 H   0  0  0  0  0  0  0  0  0  0  0  0
   -0.2862    8.9622    1.9512 H   0  0  0  0  0  0  0  0  0  0  0  0
   -1.3042   10.3123    1.3143 H   0  0  0  0  0  0  0  0  0  0  0  0
   -1.9903    8.2681    0.2622 H   0  0  0  0  0  0  0  0  0  0  0  0
    0.4170    7.5020    0.5580 H   0  0  0  0  0  0  0  0  0  0  0  0
   -2.7264   10.5148   -0.1559 H   0  0  0  0  0  0  0  0  0  0  0  0
   -2.3208   11.3317   -1.7034 H   0  0  0  0  0  0  0  0  0  0  0  0
   -3.3873    9.8863   -1.7034 H   0  0  0  0  0  0  0  0  0  0  0  0
   -1.9711    7.4688   -1.9901 H   0  0  0  0  0  0  0  0  0  0  0  0
   -2.4577    8.7958   -3.0988 H   0  0  0  0  0  0  0  0  0  0  0  0
   -0.7625    8.2016   -3.0988 H   0  0  0  0  0  0  0  0  0  0  0  0
    3.2722   11.1213    0.2850 H   0  0  0  0  0  0  0  0  0  0  0  0
    2.9562   10.2565   -1.2574 H   0  0  0  0  0  0  0  0  0  0  0  0
    3.9286   11.7668   -1.2574 H   0  0  0  0  0  0  0  0  0  0  0  0
    1.4969   12.9669    0.9737 H   0  0  0  0  0  0  0  0  0  0  0  0
    2.9374   13.5935   -0.0097 H   0  0  0  0  0  0  0  0  0  0  0  0
    0.0263   14.3914   -0.2813 H   0  0  0  0  0  0  0  0  0  0  0  0
    1.4252   15.3952    0.2686 H   0  0  0  0  0  0  0  0  0  0  0  0
    3.3524   15.3984   -0.9358 H   0  0  0  0  0  0  0  0  0  0  0  0
    3.4413   14.4986   -2.4879 H   0  0  0  0  0  0  0  0  0  0  0  0
    3.0599   16.2540   -2.4879 H   0  0  0  0  0  0  0  0  0  0  0  0
  1  2  1  0
  2  3  1  0
  3  4  1  0
  4  5  1  0
  5  6  1  0
  6  7  1  0
  7  8  1  0
  7  9  1  0
  2 10  1  0
 10 11  1  0
 11 12  1  0
 12 13  1  0
 13 14  1  1
 13 15  1  0
 15 16  1  0
 16 17  1  0
 17 18  2  0
 18 19  1  0
 19 20  1  0
 20 21  1  0
 21 22  1  0
 22 23  1  0
 22 24  1  0
 24 25  1  0
 24 26  1  0
 19 27  1  0
 27 28  1  6
 27 29  1  0
 29 30  1  0
 30 31  1  0
 31 32  1  1
  7  5  1  0
 31 10  1  0
 31 13  1  0
 27 15  1  0
 24 18  1  0
  1 33  1  0
  1 34  1  0
  1 35  1  0
  2 36  1  6
  3 37  1  0
  3 38  1  0
  4 39  1  0
  4 40  1  0
  5 41  1  1
  8 42  1  0
  8 43  1  0
  8 44  1  0
  9 45  1  0
  9 46  1  0
  9 47  1  0
 10 48  1  1
 11 49  1  0
 11 50  1  0
 12 51  1  0
 12 52  1  0
 14 53  1  0
 14 54  1  0
 14 55  1  0
 15 56  1  6
 16 57  1  0
 16 58  1  0
 17 59  1  0
 19 60  1  1
 20 61  1  0
 20 62  1  0
 21 63  1  0
 21 64  1  0
 22 65  1  1
 23 66  1  0
 25 67  1  0
 25 68  1  0
 25 69  1  0
 26 70  1  0
 26 71  1  0
 26 72  1  0
 28 73  1  0
 28 74  1  0
 28 75  1  0
 29 76  1  0
 29 77  1  0
 30 78  1  0
 30 79  1  0
 32 80  1  0
 32 81  1  0
 32 82  1  0
M  END
>  <meeko>  (3) 
{"is_sidechain": [false], "intermolecular_energy": 2.731, "internal_energy": -0.839}

$$$$
EPH_relaxed_0001_pdb2pqr_Repair_86_r2_0001_out
     RDKit          3D

 82 86  0  0  0  0  0  0  0  0999 V2000
    0.4240   18.4250   -0.0410 C   0  0  0  0  0  0  0  0  0  0  0  0
    1.5060   17.3620   -0.2460 C   0  0  2  0  0  0  0  0  0  0  0  0
    2.7280   17.9160   -1.0070 C   0  0  0  0  0  0  0  0  0  0  0  0
    3.9610   18.1240   -0.1230 C   0  0  0  0  0  0  0  0  0  0  0  0
    3.5860   18.5940    1.2500 C   0  0  2  0  0  0  0  0  0  0  0  0
    3.8170   19.9880    1.4890 O   0  0  0  0  0  0  0  0  0  0  0  0
    4.5970   19.0720    2.2750 C   0  0  0  0  0  0  0  0  0  0  0  0
    6.0620   19.1030    1.9710 C   0  0  0  0  0  0  0  0  0  0  0  0
    4.2160   19.0450    3.7220 C   0  0  0  0  0  0  0  0  0  0  0  0
    0.9260   16.1670   -0.9930 C   0  0  1  0  0  0  0  0  0  0  0  0
    0.7880   16.4240   -2.5170 C   0  0  0  0  0  0  0  0  0  0  0  0
    1.0710   15.0750   -3.2260 C   0  0  0  0  0  0  0  0  0  0  0  0
    1.0340   14.0230   -2.0920 C   0  0  1  0  0  0  0  0  0  0  0  0
   -0.4830   13.7300   -1.8660 C   0  0  0  0  0  0  0  0  0  0  0  0
    1.8440   12.7100   -2.3410 C   0  0  2  0  0  0  0  0  0  0  0  0
    1.3660   11.8640   -3.5340 C   0  0  0  0  0  0  0  0  0  0  0  0
    0.3340   10.8330   -3.2130 C   0  0  0  0  0  0  0  0  0  0  0  0
    0.0190   10.4010   -1.9770 C   0  0  0  0  0  0  0  0  0  0  0  0
    0.7980   10.8890   -0.7490 C   0  0  1  0  0  0  0  0  0  0  0  0
    1.1580    9.6780    0.1510 C   0  0  0  0  0  0  0  0  0  0  0  0
   -0.0640    8.8460    0.5280 C   0  0  0  0  0  0  0  0  0  0  0  0
   -0.7790    8.3310   -0.7180 C   0  0  2  0  0  0  0  0  0  0  0  0
    0.0730    7.3920   -1.3830 O   0  0  0  0  0  0  0  0  0  0  0  0
   -1.1810    9.4620   -1.7060 C   0  0  0  0  0  0  0  0  0  0  0  0
   -2.3280   10.3030   -1.0940 C   0  0  0  0  0  0  0  0  0  0  0  0
   -1.7650    8.7960   -2.9820 C   0  0  0  0  0  0  0  0  0  0  0  0
    2.0510   11.8210   -1.0480 C   0  0  1  0  0  0  0  0  0  0  0  0
    3.3150   10.9450   -1.3080 C   0  0  0  0  0  0  0  0  0  0  0  0
    2.3650   12.6860    0.2290 C   0  0  0  0  0  0  0  0  0  0  0  0
    1.6210   14.0290    0.3580 C   0  0  0  0  0  0  0  0  0  0  0  0
    1.7220   14.8390   -0.9380 C   0  0  2  0  0  0  0  0  0  0  0  0
    3.2350   15.1670   -1.1800 C   0  0  0  0  0  0  0  0  0  0  0  0
    0.2639   18.5823    1.0359 H   0  0  0  0  0  0  0  0  0  0  0  0
    0.7447   19.3690   -0.5058 H   0  0  0  0  0  0  0  0  0  0  0  0
   -0.5142   18.0876   -0.5058 H   0  0  0  0  0  0  0  0  0  0  0  0
    1.8519   17.0463    0.7493 H   0  0  0  0  0  0  0  0  0  0  0  0
    2.9896   17.2075   -1.8068 H   0  0  0  0  0  0  0  0  0  0  0  0
    2.4425   18.9037   -1.3982 H   0  0  0  0  0  0  0  0  0  0  0  0
    4.5034   17.1708   -0.0377 H   0  0  0  0  0  0  0  0  0  0  0  0
    4.5910   18.8957   -0.5894 H   0  0  0  0  0  0  0  0  0  0  0  0
    2.7710   17.8573    1.3056 H   0  0  0  0  0  0  0  0  0  0  0  0
    6.6316   19.1151    2.9120 H   0  0  0  0  0  0  0  0  0  0  0  0
    6.3346   18.2104    1.3888 H   0  0  0  0  0  0  0  0  0  0  0  0
    6.2966   20.0063    1.3888 H   0  0  0  0  0  0  0  0  0  0  0  0
    5.1229   19.1093    4.3412 H   0  0  0  0  0  0  0  0  0  0  0  0
    3.5590   19.8988    3.9442 H   0  0  0  0  0  0  0  0  0  0  0  0
    3.6860   18.1070    3.9442 H   0  0  0  0  0  0  0  0  0  0  0  0
   -0.0262   16.0575   -0.4533 H   0  0  0  0  0  0  0  0  0  0  0  0
   -0.2296   16.7693   -2.7522 H   0  0  0  0  0  0  0  0  0  0  0  0
    1.4912   17.2009   -2.8516 H   0  0  0  0  0  0  0  0  0  0  0  0
    0.2976   14.8621   -3.9786 H   0  0  0  0  0  0  0  0  0  0  0  0
    2.0322   15.0783   -3.7608 H   0  0  0  0  0  0  0  0  0  0  0  0
   -0.6918   13.6897   -0.7868 H   0  0  0  0  0  0  0  0  0  0  0  0
   -1.0832   14.5288   -2.3260 H   0  0  0  0  0  0  0  0  0  0  0  0
   -0.7426   12.7651   -2.3260 H   0  0  0  0  0  0  0  0  0  0  0  0
    2.8343   13.0948   -2.6260 H   0  0  0  0  0  0  0  0  0  0  0  0
    0.9426   12.5459   -4.2861 H   0  0  0  0  0  0  0  0  0  0  0  0
    2.2487   11.3109   -3.8876 H   0  0  0  0  0  0  0  0  0  0  0  0
   -0.2147   10.3894   -4.0569 H   0  0  0  0  0  0  0  0  0  0  0  0
    0.1206   11.5669   -0.2090 H   0  0  0  0  0  0  0  0  0  0  0  0
    1.8688    9.0358   -0.3896 H   0  0  0  0  0  0  0  0  0  0  0  0
    1.5944   10.0711    1.0811 H   0  0  0  0  0  0  0  0  0  0  0  0
    0.2581    7.9893    1.1381 H   0  0  0  0  0  0  0  0  0  0  0  0
   -0.7602    9.4817    1.0947 H   0  0  0  0  0  0  0  0  0  0  0  0
   -1.7146    7.8555   -0.3885 H   0  0  0  0  0  0  0  0  0  0  0  0
   -0.4830    6.8580   -1.9750 H   0  0  0  0  0  0  0  0  0  0  0  0
   -2.2690   10.2598    0.0036 H   0  0  0  0  0  0  0  0  0  0  0  0
   -2.2338   11.3477   -1.4254 H   0  0  0  0  0  0  0  0  0  0  0  0
   -3.2960    9.8990   -1.4254 H   0  0  0  0  0  0  0  0  0  0  0  0
   -2.4645    7.9982   -2.6918 H   0  0  0  0  0  0  0  0  0  0  0  0
   -2.2973    9.5512   -3.5789 H   0  0  0  0  0  0  0  0  0  0  0  0
   -0.9467    8.3669   -3.5789 H   0  0  0  0  0  0  0  0  0  0  0  0
    3.7542   10.6406   -0.3465 H   0  0  0  0  0  0  0  0  0  0  0  0
    3.0295   10.0501   -1.8804 H   0  0  0  0  0  0  0  0  0  0  0  0
    4.0527   11.5265   -1.8804 H   0  0  0  0  0  0  0  0  0  0  0  0
    2.1132   12.0799    1.1117 H   0  0  0  0  0  0  0  0  0  0  0  0
    3.4285   12.9531    0.1416 H   0  0  0  0  0  0  0  0  0  0  0  0
    0.5612   13.8334    0.5783 H   0  0  0  0  0  0  0  0  0  0  0  0
    2.0828   14.6089    1.1707 H   0  0  0  0  0  0  0  0  0  0  0  0
    3.7456   15.2777   -0.2120 H   0  0  0  0  0  0  0  0  0  0  0  0
    3.7011   14.3490   -1.7490 H   0  0  0  0  0  0  0  0  0  0  0  0
    3.3205   16.1045   -1.7490 H   0  0  0  0  0  0  0  0  0  0  0  0
  1  2  1  0
  2  3  1  0
  3  4  1  0
  4  5  1  0
  5  6  1  0
  6  7  1  0
  7  8  1  0
  7  9  1  0
  2 10  1  0
 10 11  1  0
 11 12  1  0
 12 13  1  0
 13 14  1  1
 13 15  1  0
 15 16  1  0
 16 17  1  0
 17 18  2  0
 18 19  1  0
 19 20  1  0
 20 21  1  0
 21 22  1  0
 22 23  1  0
 22 24  1  0
 24 25  1  0
 24 26  1  0
 19 27  1  0
 27 28  1  6
 27 29  1  0
 29 30  1  0
 30 31  1  0
 31 32  1  6
  7  5  1  0
 31 10  1  0
 31 13  1  0
 27 15  1  0
 24 18  1  0
  1 33  1  0
  1 34  1  0
  1 35  1  0
  2 36  1  1
  3 37  1  0
  3 38  1  0
  4 39  1  0
  4 40  1  0
  5 41  1  1
  8 42  1  0
  8 43  1  0
  8 44  1  0
  9 45  1  0
  9 46  1  0
  9 47  1  0
 10 48  1  1
 11 49  1  0
 11 50  1  0
 12 51  1  0
 12 52  1  0
 14 53  1  0
 14 54  1  0
 14 55  1  0
 15 56  1  6
 16 57  1  0
 16 58  1  0
 17 59  1  0
 19 60  1  1
 20 61  1  0
 20 62  1  0
 21 63  1  0
 21 64  1  0
 22 65  1  1
 23 66  1  0
 25 67  1  0
 25 68  1  0
 25 69  1  0
 26 70  1  0
 26 71  1  0
 26 72  1  0
 28 73  1  0
 28 74  1  0
 28 75  1  0
 29 76  1  0
 29 77  1  0
 30 78  1  0
 30 79  1  0
 32 80  1  0
 32 81  1  0
 32 82  1  0
M  END
>  <meeko>  (4) 
{"is_sidechain": [false], "intermolecular_energy": 2.731, "internal_energy": -0.839}

$$$$
EPH_relaxed_0001_pdb2pqr_Repair_86_r2_0001_out
     RDKit          3D

 82 86  0  0  0  0  0  0  0  0999 V2000
    1.9920   18.0460   -3.1000 C   0  0  0  0  0  0  0  0  0  0  0  0
    0.5370   17.7750   -2.7070 C   0  0  2  0  0  0  0  0  0  0  0  0
    0.2650   18.1050   -1.2250 C   0  0  0  0  0  0  0  0  0  0  0  0
    0.8780   19.4310   -0.7670 C   0  0  0  0  0  0  0  0  0  0  0  0
    1.6960   19.2630    0.4770 C   0  0  2  0  0  0  0  0  0  0  0  0
    2.7830   20.1890    0.6080 O   0  0  0  0  0  0  0  0  0  0  0  0
    3.1420   18.8040    0.4720 C   0  0  0  0  0  0  0  0  0  0  0  0
    3.8540   18.4830   -0.8040 C   0  0  0  0  0  0  0  0  0  0  0  0
    3.7060   18.2020    1.7210 C   0  0  0  0  0  0  0  0  0  0  0  0
    0.1840   16.3200   -2.9900 C   0  0  1  0  0  0  0  0  0  0  0  0
    0.3220   15.9530   -4.4910 C   0  0  0  0  0  0  0  0  0  0  0  0
    0.8180   14.4850   -4.5500 C   0  0  0  0  0  0  0  0  0  0  0  0
    0.6320   13.9530   -3.1090 C   0  0  1  0  0  0  0  0  0  0  0  0
   -0.8780   13.5710   -3.0140 C   0  0  0  0  0  0  0  0  0  0  0  0
    1.5560   12.7640   -2.6880 C   0  0  2  0  0  0  0  0  0  0  0  0
    1.3660   11.4710   -3.4990 C   0  0  0  0  0  0  0  0  0  0  0  0
    0.3590   10.5150   -2.9500 C   0  0  0  0  0  0  0  0  0  0  0  0
   -0.1570   10.5520   -1.7070 C   0  0  0  0  0  0  0  0  0  0  0  0
    0.3440   11.5710   -0.6760 C   0  0  1  0  0  0  0  0  0  0  0  0
    0.6010   10.8560    0.6770 C   0  0  0  0  0  0  0  0  0  0  0  0
   -0.6160   10.0790    1.1690 C   0  0  0  0  0  0  0  0  0  0  0  0
   -1.0480    9.0350    0.1410 C   0  0  2  0  0  0  0  0  0  0  0  0
   -0.0290    8.0360    0.0430 O   0  0  0  0  0  0  0  0  0  0  0  0
   -1.3260    9.6380   -1.2640 C   0  0  0  0  0  0  0  0  0  0  0  0
   -2.6190   10.4890   -1.2180 C   0  0  0  0  0  0  0  0  0  0  0  0
   -1.6140    8.4630   -2.2380 C   0  0  0  0  0  0  0  0  0  0  0  0
    1.5690   12.4740   -1.1320 C   0  0  1  0  0  0  0  0  0  0  0  0
    2.9120   11.7420   -0.8270 C   0  0  0  0  0  0  0  0  0  0  0  0
    1.5810   13.7960   -0.2770 C   0  0  0  0  0  0  0  0  0  0  0  0
    0.7430   14.9750   -0.8090 C   0  0  0  0  0  0  0  0  0  0  0  0
    1.0370   15.2320   -2.2900 C   0  0  2  0  0  0  0  0  0  0  0  0
    2.5450   15.6400   -2.4140 C   0  0  0  0  0  0  0  0  0  0  0  0
    2.6021   18.1596   -2.1917 H   0  0  0  0  0  0  0  0  0  0  0  0
    2.3740   17.2036   -3.6953 H   0  0  0  0  0  0  0  0  0  0  0  0
    2.0451   18.9695   -3.6953 H   0  0  0  0  0  0  0  0  0  0  0  0
   -0.0985   18.4360   -3.3146 H   0  0  0  0  0  0  0  0  0  0  0  0
   -0.8235   18.1554   -1.0746 H   0  0  0  0  0  0  0  0  0  0  0  0
    0.7351   17.3102   -0.6273 H   0  0  0  0  0  0  0  0  0  0  0  0
    1.5233   19.8209   -1.5680 H   0  0  0  0  0  0  0  0  0  0  0  0
    0.0577   20.1299   -0.5462 H   0  0  0  0  0  0  0  0  0  0  0  0
    0.8149   18.9187    1.0383 H   0  0  0  0  0  0  0  0  0  0  0  0
    4.8349   18.0408   -0.5753 H   0  0  0  0  0  0  0  0  0  0  0  0
    3.2562   17.7673   -1.3874 H   0  0  0  0  0  0  0  0  0  0  0  0
    3.9945   19.4049   -1.3874 H   0  0  0  0  0  0  0  0  0  0  0  0
    3.2525   18.6861    2.5985 H   0  0  0  0  0  0  0  0  0  0  0  0
    3.4846   17.1247    1.7412 H   0  0  0  0  0  0  0  0  0  0  0  0
    4.7954   18.3528    1.7412 H   0  0  0  0  0  0  0  0  0  0  0  0
   -0.8445   16.3008   -2.6003 H   0  0  0  0  0  0  0  0  0  0  0  0
   -0.6520   16.0441   -4.9941 H   0  0  0  0  0  0  0  0  0  0  0  0
    1.0263   16.6281   -4.9991 H   0  0  0  0  0  0  0  0  0  0  0  0
    0.2161   13.8998   -5.2609 H   0  0  0  0  0  0  0  0  0  0  0  0
    1.8610   14.4101   -4.8914 H   0  0  0  0  0  0  0  0  0  0  0  0
   -1.1716   13.4967   -1.9565 H   0  0  0  0  0  0  0  0  0  0  0  0
   -1.4837   14.3442   -3.5093 H   0  0  0  0  0  0  0  0  0  0  0  0
   -1.0431   12.6028   -3.5093 H   0  0  0  0  0  0  0  0  0  0  0  0
    2.5565   13.1372   -2.9522 H   0  0  0  0  0  0  0  0  0  0  0  0
    1.0504   11.7505   -4.5150 H   0  0  0  0  0  0  0  0  0  0  0  0
    2.3324   10.9467   -3.4659 H   0  0  0  0  0  0  0  0  0  0  0  0
    0.0094    9.7132   -3.6170 H   0  0  0  0  0  0  0  0  0  0  0  0
   -0.4640   12.3084   -0.5604 H   0  0  0  0  0  0  0  0  0  0  0  0
    1.4396   10.1552    0.5517 H   0  0  0  0  0  0  0  0  0  0  0  0
    0.8279   11.6296    1.4254 H   0  0  0  0  0  0  0  0  0  0  0  0
   -0.3629    9.5726    2.1121 H   0  0  0  0  0  0  0  0  0  0  0  0
   -1.4453   10.7851    1.3227 H   0  0  0  0  0  0  0  0  0  0  0  0
   -1.9970    8.6013    0.4893 H   0  0  0  0  0  0  0  0  0  0  0  0
    0.7900    8.4770   -0.2400 H   0  0  0  0  0  0  0  0  0  0  0  0
   -2.8994   10.6736   -0.1705 H   0  0  0  0  0  0  0  0  0  0  0  0
   -2.4442   11.4492   -1.7254 H   0  0  0  0  0  0  0  0  0  0  0  0
   -3.4318    9.9487   -1.7254 H   0  0  0  0  0  0  0  0  0  0  0  0
   -1.8368    7.5539   -1.6601 H   0  0  0  0  0  0  0  0  0  0  0  0
   -2.4769    8.7153   -2.8719 H   0  0  0  0  0  0  0  0  0  0  0  0
   -0.7323    8.2876   -2.8719 H   0  0  0  0  0  0  0  0  0  0  0  0
    3.0497   11.6670    0.2618 H   0  0  0  0  0  0  0  0  0  0  0  0
    2.8869   10.7328   -1.2638 H   0  0  0  0  0  0  0  0  0  0  0  0
    3.7466   12.3100   -1.2638 H   0  0  0  0  0  0  0  0  0  0  0  0
    1.2055   13.5468    0.7264 H   0  0  0  0  0  0  0  0  0  0  0  0
    2.6229   14.1476   -0.3050 H   0  0  0  0  0  0  0  0  0  0  0  0
   -0.3250   14.7402   -0.6896 H   0  0  0  0  0  0  0  0  0  0  0  0
    1.0049   15.8777   -0.2375 H   0  0  0  0  0  0  0  0  0  0  0  0
    2.9770   15.7569   -1.4092 H   0  0  0  0  0  0  0  0  0  0  0  0
    3.0928   14.8578   -2.9599 H   0  0  0  0  0  0  0  0  0  0  0  0
    2.6237   16.5917   -2.9599 H   0  0  0  0  0  0  0  0  0  0  0  0
  1  2  1  0
  2  3  1  0
  3  4  1  0
  4  5  1  0
  5  6  1  0
  6  7  1  0
  7  8  1  0
  7  9  1  0
  2 10  1  0
 10 11  1  0
 11 12  1  0
 12 13  1  0
 13 14  1  6
 13 15  1  0
 15 16  1  0
 16 17  1  0
 17 18  2  0
 18 19  1  0
 19 20  1  0
 20 21  1  0
 21 22  1  0
 22 23  1  0
 22 24  1  0
 24 25  1  0
 24 26  1  0
 19 27  1  0
 27 28  1  6
 27 29  1  0
 29 30  1  0
 30 31  1  0
 31 32  1  1
  7  5  1  0
 31 10  1  0
 31 13  1  0
 27 15  1  0
 24 18  1  0
  1 33  1  0
  1 34  1  0
  1 35  1  0
  2 36  1  6
  3 37  1  0
  3 38  1  0
  4 39  1  0
  4 40  1  0
  5 41  1  1
  8 42  1  0
  8 43  1  0
  8 44  1  0
  9 45  1  0
  9 46  1  0
  9 47  1  0
 10 48  1  1
 11 49  1  0
 11 50  1  0
 12 51  1  0
 12 52  1  0
 14 53  1  0
 14 54  1  0
 14 55  1  0
 15 56  1  6
 16 57  1  0
 16 58  1  0
 17 59  1  0
 19 60  1  1
 20 61  1  0
 20 62  1  0
 21 63  1  0
 21 64  1  0
 22 65  1  1
 23 66  1  0
 25 67  1  0
 25 68  1  0
 25 69  1  0
 26 70  1  0
 26 71  1  0
 26 72  1  0
 28 73  1  0
 28 74  1  0
 28 75  1  0
 29 76  1  0
 29 77  1  0
 30 78  1  0
 30 79  1  0
 32 80  1  0
 32 81  1  0
 32 82  1  0
M  END
>  <meeko>  (5) 
{"is_sidechain": [false], "intermolecular_energy": 2.731, "internal_energy": -0.839}

$$$$
EPH_relaxed_0001_pdb2pqr_Repair_86_r2_0001_out
     RDKit          3D

 82 86  0  0  0  0  0  0  0  0999 V2000
    3.7180   17.4360    0.6260 C   0  0  0  0  0  0  0  0  0  0  0  0
    2.8550   17.6680   -0.6180 C   0  0  2  0  0  0  0  0  0  0  0  0
    2.2280   19.0760   -0.6350 C   0  0  0  0  0  0  0  0  0  0  0  0
    1.4900   19.4380    0.6570 C   0  0  0  0  0  0  0  0  0  0  0  0
    0.1690   20.0880    0.3770 C   0  0  2  0  0  0  0  0  0  0  0  0
   -0.6980   20.1940    1.5140 O   0  0  0  0  0  0  0  0  0  0  0  0
   -1.1560   19.3520    0.4430 C   0  0  0  0  0  0  0  0  0  0  0  0
   -1.2260   17.9000    0.7990 C   0  0  0  0  0  0  0  0  0  0  0  0
   -2.3240   19.9120   -0.3070 C   0  0  0  0  0  0  0  0  0  0  0  0
    1.7610   16.6090   -0.6950 C   0  0  1  0  0  0  0  0  0  0  0  0
    0.4830   17.1220   -1.4100 C   0  0  0  0  0  0  0  0  0  0  0  0
   -0.1060   15.9190   -2.1910 C   0  0  0  0  0  0  0  0  0  0  0  0
    0.6510   14.6880   -1.6390 C   0  0  1  0  0  0  0  0  0  0  0  0
   -0.0740   14.3380   -0.3020 C   0  0  0  0  0  0  0  0  0  0  0  0
    0.7410   13.4500   -2.5890 C   0  0  2  0  0  0  0  0  0  0  0  0
   -0.6100   12.8140   -2.9620 C   0  0  0  0  0  0  0  0  0  0  0  0
   -1.0770   11.7280   -2.0510 C   0  0  0  0  0  0  0  0  0  0  0  0
   -0.3150   11.0850   -1.1460 C   0  0  0  0  0  0  0  0  0  0  0  0
    1.1890   11.3670   -1.0390 C   0  0  1  0  0  0  0  0  0  0  0  0
    1.9630   10.0250   -0.9620 C   0  0  0  0  0  0  0  0  0  0  0  0
    1.4580    9.1220    0.1590 C   0  0  0  0  0  0  0  0  0  0  0  0
   -0.0270    8.8170   -0.0140 C   0  0  2  0  0  0  0  0  0  0  0  0
   -0.2010    8.0200   -1.1890 O   0  0  0  0  0  0  0  0  0  0  0  0
   -0.9080   10.0940   -0.1130 C   0  0  0  0  0  0  0  0  0  0  0  0
   -0.9590   10.8000    1.2640 C   0  0  0  0  0  0  0  0  0  0  0  0
   -2.3620    9.6490   -0.4270 C   0  0  0  0  0  0  0  0  0  0  0  0
    1.7880   12.3560   -2.1300 C   0  0  1  0  0  0  0  0  0  0  0  0
    2.1870   11.5570   -3.4090 C   0  0  0  0  0  0  0  0  0  0  0  0
    3.1150   12.9940   -1.5730 C   0  0  0  0  0  0  0  0  0  0  0  0
    2.9700   14.2830   -0.7420 C   0  0  0  0  0  0  0  0  0  0  0  0
    2.0860   15.3050   -1.4640 C   0  0  2  0  0  0  0  0  0  0  0  0
    2.8010   15.6930   -2.8030 C   0  0  0  0  0  0  0  0  0  0  0  0
    3.1112   17.5991    1.5289 H   0  0  0  0  0  0  0  0  0  0  0  0
    4.0981   16.4038    0.6213 H   0  0  0  0  0  0  0  0  0  0  0  0
    4.5645   18.1385    0.6213 H   0  0  0  0  0  0  0  0  0  0  0  0
    3.5118   17.5891   -1.4969 H   0  0  0  0  0  0  0  0  0  0  0  0
    3.0304   19.8114   -0.7940 H   0  0  0  0  0  0  0  0  0  0  0  0
    1.4827   19.0857   -1.4439 H   0  0  0  0  0  0  0  0  0  0  0  0
    1.3196   18.5205    1.2393 H   0  0  0  0  0  0  0  0  0  0  0  0
    2.1112   20.1514    1.2185 H   0  0  0  0  0  0  0  0  0  0  0  0
    0.6200   20.7268   -0.3967 H   0  0  0  0  0  0  0  0  0  0  0  0
   -1.2313   17.7907    1.8935 H   0  0  0  0  0  0  0  0  0  0  0  0
   -2.1462   17.4643    0.3826 H   0  0  0  0  0  0  0  0  0  0  0  0
   -0.3520   17.3778    0.3826 H   0  0  0  0  0  0  0  0  0  0  0  0
   -3.0787   20.2739    0.4068 H   0  0  0  0  0  0  0  0  0  0  0  0
   -1.9875   20.7467   -0.9395 H   0  0  0  0  0  0  0  0  0  0  0  0
   -2.7641   19.1270   -0.9395 H   0  0  0  0  0  0  0  0  0  0  0  0
    1.6383   16.3927    0.3765 H   0  0  0  0  0  0  0  0  0  0  0  0
   -0.2448   17.4861   -0.6699 H   0  0  0  0  0  0  0  0  0  0  0  0
    0.7174   17.9562   -2.0876 H   0  0  0  0  0  0  0  0  0  0  0  0
   -1.1862   15.8264   -2.0049 H   0  0  0  0  0  0  0  0  0  0  0  0
    0.0131   16.0290   -3.2790 H   0  0  0  0  0  0  0  0  0  0  0  0
    0.5558   14.6420    0.5471 H   0  0  0  0  0  0  0  0  0  0  0  0
   -1.0349   14.8715   -0.2554 H   0  0  0  0  0  0  0  0  0  0  0  0
   -0.2539   13.2538   -0.2554 H   0  0  0  0  0  0  0  0  0  0  0  0
    1.1289   13.8931   -3.5181 H   0  0  0  0  0  0  0  0  0  0  0  0
   -1.3710   13.6083   -2.9620 H   0  0  0  0  0  0  0  0  0  0  0  0
   -0.4636   12.3438   -3.9456 H   0  0  0  0  0  0  0  0  0  0  0  0
   -2.1326   11.4276   -2.1251 H   0  0  0  0  0  0  0  0  0  0  0  0
    1.3274   11.9314   -0.1050 H   0  0  0  0  0  0  0  0  0  0  0  0
    1.8480    9.4962   -1.9197 H   0  0  0  0  0  0  0  0  0  0  0  0
    3.0173   10.2591   -0.7529 H   0  0  0  0  0  0  0  0  0  0  0  0
    2.0235    8.1786    0.1438 H   0  0  0  0  0  0  0  0  0  0  0  0
    1.6006    9.6403    1.1187 H   0  0  0  0  0  0  0  0  0  0  0  0
   -0.3588    8.2765    0.8847 H   0  0  0  0  0  0  0  0  0  0  0  0
   -0.4900    7.1360   -0.9060 H   0  0  0  0  0  0  0  0  0  0  0  0
   -0.9046   10.0472    2.0642 H   0  0  0  0  0  0  0  0  0  0  0  0
   -0.1085   11.4919    1.3530 H   0  0  0  0  0  0  0  0  0  0  0  0
   -1.9001   11.3625    1.3530 H   0  0  0  0  0  0  0  0  0  0  0  0
   -2.9059    9.4825    0.5145 H   0  0  0  0  0  0  0  0  0  0  0  0
   -2.8679   10.4334   -1.0090 H   0  0  0  0  0  0  0  0  0  0  0  0
   -2.3422    8.7158   -1.0090 H   0  0  0  0  0  0  0  0  0  0  0  0
    2.6607   10.6085   -3.1159 H   0  0  0  0  0  0  0  0  0  0  0  0
    1.2873   11.3483   -4.0065 H   0  0  0  0  0  0  0  0  0  0  0  0
    2.8944   12.1508   -4.0065 H   0  0  0  0  0  0  0  0  0  0  0  0
    3.6048   12.2416   -0.9375 H   0  0  0  0  0  0  0  0  0  0  0  0
    3.6889   13.2887   -2.4639 H   0  0  0  0  0  0  0  0  0  0  0  0
    2.5152   14.0360    0.2286 H   0  0  0  0  0  0  0  0  0  0  0  0
    3.9684   14.7221   -0.5991 H   0  0  0  0  0  0  0  0  0  0  0  0
    3.7474   16.2065   -2.5779 H   0  0  0  0  0  0  0  0  0  0  0  0
    3.0072   14.7830   -3.3856 H   0  0  0  0  0  0  0  0  0  0  0  0
    2.1504   16.3618   -3.3856 H   0  0  0  0  0  0  0  0  0  0  0  0
  1  2  1  0
  2  3  1  0
  3  4  1  0
  4  5  1  0
  5  6  1  0
  6  7  1  0
  7  8  1  0
  7  9  1  0
  2 10  1  0
 10 11  1  0
 11 12  1  0
 12 13  1  0
 13 14  1  1
 13 15  1  0
 15 16  1  0
 16 17  1  0
 17 18  2  0
 18 19  1  0
 19 20  1  0
 20 21  1  0
 21 22  1  0
 22 23  1  0
 22 24  1  0
 24 25  1  0
 24 26  1  0
 19 27  1  0
 27 28  1  6
 27 29  1  0
 29 30  1  0
 30 31  1  0
 31 32  1  6
  7  5  1  0
 31 10  1  0
 31 13  1  0
 27 15  1  0
 24 18  1  0
  1 33  1  0
  1 34  1  0
  1 35  1  0
  2 36  1  6
  3 37  1  0
  3 38  1  0
  4 39  1  0
  4 40  1  0
  5 41  1  6
  8 42  1  0
  8 43  1  0
  8 44  1  0
  9 45  1  0
  9 46  1  0
  9 47  1  0
 10 48  1  1
 11 49  1  0
 11 50  1  0
 12 51  1  0
 12 52  1  0
 14 53  1  0
 14 54  1  0
 14 55  1  0
 15 56  1  6
 16 57  1  0
 16 58  1  0
 17 59  1  0
 19 60  1  1
 20 61  1  0
 20 62  1  0
 21 63  1  0
 21 64  1  0
 22 65  1  1
 23 66  1  0
 25 67  1  0
 25 68  1  0
 25 69  1  0
 26 70  1  0
 26 71  1  0
 26 72  1  0
 28 73  1  0
 28 74  1  0
 28 75  1  0
 29 76  1  0
 29 77  1  0
 30 78  1  0
 30 79  1  0
 32 80  1  0
 32 81  1  0
 32 82  1  0
M  END
>  <meeko>  (6) 
{"is_sidechain": [false], "intermolecular_energy": 2.731, "internal_energy": -0.839}

$$$$
EPH_relaxed_0001_pdb2pqr_Repair_86_r2_0001_out
     RDKit          3D

 82 86  0  0  0  0  0  0  0  0999 V2000
    0.4560    8.8060   -2.3730 C   0  0  0  0  0  0  0  0  0  0  0  0
    1.1960    9.9510   -3.0700 C   0  0  2  0  0  0  0  0  0  0  0  0
    2.6970    9.9730   -2.7170 C   0  0  0  0  0  0  0  0  0  0  0  0
    3.5770   10.5860   -3.8090 C   0  0  0  0  0  0  0  0  0  0  0  0
    4.9740   10.8290   -3.3240 C   0  0  2  0  0  0  0  0  0  0  0  0
    5.5690   12.0450   -3.7960 O   0  0  0  0  0  0  0  0  0  0  0  0
    6.1890   10.8240   -4.2340 C   0  0  0  0  0  0  0  0  0  0  0  0
    6.0620   10.5700   -5.7030 C   0  0  0  0  0  0  0  0  0  0  0  0
    7.5360   10.5810   -3.6280 C   0  0  0  0  0  0  0  0  0  0  0  0
    0.5550   11.2840   -2.7040 C   0  0  1  0  0  0  0  0  0  0  0  0
   -0.8210   11.1130   -2.0070 C   0  0  0  0  0  0  0  0  0  0  0  0
   -0.9390   12.2540   -0.9630 C   0  0  0  0  0  0  0  0  0  0  0  0
    0.2090   13.2270   -1.3180 C   0  0  1  0  0  0  0  0  0  0  0  0
   -0.3430   14.0830   -2.5010 C   0  0  0  0  0  0  0  0  0  0  0  0
    0.7390   14.1260   -0.1540 C   0  0  2  0  0  0  0  0  0  0  0  0
   -0.2930   15.1020    0.4390 C   0  0  0  0  0  0  0  0  0  0  0  0
   -0.3400   16.4480   -0.2040 C   0  0  0  0  0  0  0  0  0  0  0  0
    0.6000   16.9580   -1.0210 C   0  0  0  0  0  0  0  0  0  0  0  0
    1.9030   16.1960   -1.2950 C   0  0  1  0  0  0  0  0  0  0  0  0
    3.1070   17.1650   -1.1670 C   0  0  0  0  0  0  0  0  0  0  0  0
    2.9590   18.4020   -2.0470 C   0  0  0  0  0  0  0  0  0  0  0  0
    1.6820   19.1650   -1.7050 C   0  0  2  0  0  0  0  0  0  0  0  0
    1.8070   19.7060   -0.3860 O   0  0  0  0  0  0  0  0  0  0  0  0
    0.4020   18.2880   -1.7900 C   0  0  0  0  0  0  0  0  0  0  0  0
    0.0990   17.9510   -3.2710 C   0  0  0  0  0  0  0  0  0  0  0  0
   -0.7950   19.1380   -1.2850 C   0  0  0  0  0  0  0  0  0  0  0  0
    2.1080   14.8540   -0.4680 C   0  0  1  0  0  0  0  0  0  0  0  0
    2.7690   15.1730    0.9080 C   0  0  0  0  0  0  0  0  0  0  0  0
    3.1170   13.9240   -1.2400 C   0  0  0  0  0  0  0  0  0  0  0  0
    2.5180   12.9730   -2.2940 C   0  0  0  0  0  0  0  0  0  0  0  0
    1.3280   12.1990   -1.7210 C   0  0  2  0  0  0  0  0  0  0  0  0
    1.8570   11.3110   -0.5430 C   0  0  0  0  0  0  0  0  0  0  0  0
    0.5350    8.9283   -1.2827 H   0  0  0  0  0  0  0  0  0  0  0  0
   -0.6037    8.8211   -2.6678 H   0  0  0  0  0  0  0  0  0  0  0  0
    0.9050    7.8460   -2.6678 H   0  0  0  0  0  0  0  0  0  0  0  0
    1.1146    9.7852   -4.1544 H   0  0  0  0  0  0  0  0  0  0  0  0
    2.8284   10.5590   -1.7954 H   0  0  0  0  0  0  0  0  0  0  0  0
    3.0146    8.9266   -2.5980 H   0  0  0  0  0  0  0  0  0  0  0  0
    3.6120    9.8980   -4.6666 H   0  0  0  0  0  0  0  0  0  0  0  0
    3.1411   11.5538   -4.0975 H   0  0  0  0  0  0  0  0  0  0  0  0
    4.7598   10.3126   -2.3767 H   0  0  0  0  0  0  0  0  0  0  0  0
    5.5755    9.5970   -5.8662 H   0  0  0  0  0  0  0  0  0  0  0  0
    5.4552   11.3648   -6.1614 H   0  0  0  0  0  0  0  0  0  0  0  0
    7.0619   10.5615   -6.1614 H   0  0  0  0  0  0  0  0  0  0  0  0
    7.4528   10.5960   -2.5313 H   0  0  0  0  0  0  0  0  0  0  0  0
    7.9131    9.6003   -3.9537 H   0  0  0  0  0  0  0  0  0  0  0  0
    8.2320   11.3681   -3.9537 H   0  0  0  0  0  0  0  0  0  0  0  0
    0.5162   11.7498   -3.6997 H   0  0  0  0  0  0  0  0  0  0  0  0
   -1.6321   11.1904   -2.7460 H   0  0  0  0  0  0  0  0  0  0  0  0
   -0.8998   10.1273   -1.5252 H   0  0  0  0  0  0  0  0  0  0  0  0
   -1.9139   12.7568   -1.0457 H   0  0  0  0  0  0  0  0  0  0  0  0
   -0.8675   11.8834    0.0702 H   0  0  0  0  0  0  0  0  0  0  0  0
   -0.8986   14.9446   -2.1022 H   0  0  0  0  0  0  0  0  0  0  0  0
    0.4951   14.4406   -3.1172 H   0  0  0  0  0  0  0  0  0  0  0  0
   -1.0145   13.4671   -3.1172 H   0  0  0  0  0  0  0  0  0  0  0  0
    0.9434   13.3896    0.6371 H   0  0  0  0  0  0  0  0  0  0  0  0
   -1.2885   14.6442    0.3424 H   0  0  0  0  0  0  0  0  0  0  0  0
    0.0138   15.2731    1.4814 H   0  0  0  0  0  0  0  0  0  0  0  0
   -1.2175   17.0766    0.0078 H   0  0  0  0  0  0  0  0  0  0  0  0
    1.8289   15.8289   -2.3293 H   0  0  0  0  0  0  0  0  0  0  0  0
    3.1909   17.4864   -0.1183 H   0  0  0  0  0  0  0  0  0  0  0  0
    4.0064   16.6253   -1.4985 H   0  0  0  0  0  0  0  0  0  0  0  0
    3.8254   19.0613   -1.8899 H   0  0  0  0  0  0  0  0  0  0  0  0
    2.9055   18.0811   -3.0978 H   0  0  0  0  0  0  0  0  0  0  0  0
    1.5654   19.9632   -2.4528 H   0  0  0  0  0  0  0  0  0  0  0  0
    2.4280   19.1420    0.1060 H   0  0  0  0  0  0  0  0  0  0  0  0
   -0.6358   17.1338   -3.3182 H   0  0  0  0  0  0  0  0  0  0  0  0
   -0.3091   18.8404   -3.7734 H   0  0  0  0  0  0  0  0  0  0  0  0
    1.0267   17.6394   -3.7734 H   0  0  0  0  0  0  0  0  0  0  0  0
   -0.8026   19.1434   -0.1850 H   0  0  0  0  0  0  0  0  0  0  0  0
   -0.6952   20.1687   -1.6561 H   0  0  0  0  0  0  0  0  0  0  0  0
   -1.7352   18.7041   -1.6561 H   0  0  0  0  0  0  0  0  0  0  0  0
    2.1003   14.8503    1.7196 H   0  0  0  0  0  0  0  0  0  0  0  0
    3.7268   14.6380    0.9875 H   0  0  0  0  0  0  0  0  0  0  0  0
    2.9461   16.2557    0.9875 H   0  0  0  0  0  0  0  0  0  0  0  0
    3.8430   14.5730   -1.7516 H   0  0  0  0  0  0  0  0  0  0  0  0
    3.5484   13.2664   -0.4710 H   0  0  0  0  0  0  0  0  0  0  0  0
    2.1809   13.5619   -3.1597 H   0  0  0  0  0  0  0  0  0  0  0  0
    3.2922   12.2524   -2.5962 H   0  0  0  0  0  0  0  0  0  0  0  0
    1.5818   11.7730    0.4166 H   0  0  0  0  0  0  0  0  0  0  0  0
    1.4086   10.3087   -0.6094 H   0  0  0  0  0  0  0  0  0  0  0  0
    2.9519   11.2280   -0.6094 H   0  0  0  0  0  0  0  0  0  0  0  0
  1  2  1  0
  2  3  1  0
  3  4  1  0
  4  5  1  0
  5  6  1  0
  6  7  1  0
  7  8  1  0
  7  9  1  0
  2 10  1  0
 10 11  1  0
 11 12  1  0
 12 13  1  0
 13 14  1  6
 13 15  1  0
 15 16  1  0
 16 17  1  0
 17 18  2  0
 18 19  1  0
 19 20  1  0
 20 21  1  0
 21 22  1  0
 22 23  1  0
 22 24  1  0
 24 25  1  0
 24 26  1  0
 19 27  1  0
 27 28  1  1
 27 29  1  0
 29 30  1  0
 30 31  1  0
 31 32  1  1
  7  5  1  0
 31 10  1  0
 31 13  1  0
 27 15  1  0
 24 18  1  0
  1 33  1  0
  1 34  1  0
  1 35  1  0
  2 36  1  6
  3 37  1  0
  3 38  1  0
  4 39  1  0
  4 40  1  0
  5 41  1  1
  8 42  1  0
  8 43  1  0
  8 44  1  0
  9 45  1  0
  9 46  1  0
  9 47  1  0
 10 48  1  6
 11 49  1  0
 11 50  1  0
 12 51  1  0
 12 52  1  0
 14 53  1  0
 14 54  1  0
 14 55  1  0
 15 56  1  1
 16 57  1  0
 16 58  1  0
 17 59  1  0
 19 60  1  6
 20 61  1  0
 20 62  1  0
 21 63  1  0
 21 64  1  0
 22 65  1  6
 23 66  1  0
 25 67  1  0
 25 68  1  0
 25 69  1  0
 26 70  1  0
 26 71  1  0
 26 72  1  0
 28 73  1  0
 28 74  1  0
 28 75  1  0
 29 76  1  0
 29 77  1  0
 30 78  1  0
 30 79  1  0
 32 80  1  0
 32 81  1  0
 32 82  1  0
M  END
>  <meeko>  (7) 
{"is_sidechain": [false], "intermolecular_energy": 2.731, "internal_energy": -0.839}

$$$$
EPH_relaxed_0001_pdb2pqr_Repair_86_r2_0001_out
     RDKit          3D

 82 86  0  0  0  0  0  0  0  0999 V2000
   -0.3720   10.2490   -3.1490 C   0  0  0  0  0  0  0  0  0  0  0  0
    0.7800   10.1190   -2.1480 C   0  0  2  0  0  0  0  0  0  0  0  0
    0.6000    8.9110   -1.2080 C   0  0  0  0  0  0  0  0  0  0  0  0
   -0.2950    9.2000    0.0010 C   0  0  0  0  0  0  0  0  0  0  0  0
   -1.6690    8.6280   -0.1780 C   0  0  2  0  0  0  0  0  0  0  0  0
   -2.1720    8.6870   -1.5190 O   0  0  0  0  0  0  0  0  0  0  0  0
   -2.8820    9.4640   -0.5410 C   0  0  0  0  0  0  0  0  0  0  0  0
   -2.7780   10.9430   -0.7460 C   0  0  0  0  0  0  0  0  0  0  0  0
   -4.2430    8.9290   -0.2180 C   0  0  0  0  0  0  0  0  0  0  0  0
    0.9060   11.4010   -1.3320 C   0  0  1  0  0  0  0  0  0  0  0  0
    1.9870   11.2990   -0.2230 C   0  0  0  0  0  0  0  0  0  0  0  0
    2.6360   12.7020   -0.1010 C   0  0  0  0  0  0  0  0  0  0  0  0
    1.6950   13.6370   -0.8960 C   0  0  1  0  0  0  0  0  0  0  0  0
    0.5240   13.9550    0.0860 C   0  0  0  0  0  0  0  0  0  0  0  0
    2.3390   14.9420   -1.4680 C   0  0  2  0  0  0  0  0  0  0  0  0
    2.8880   15.9160   -0.4110 C   0  0  0  0  0  0  0  0  0  0  0  0
    1.9190   16.9430    0.0750 C   0  0  0  0  0  0  0  0  0  0  0  0
    0.7540   17.2610   -0.5180 C   0  0  0  0  0  0  0  0  0  0  0  0
    0.3540   16.6300   -1.8580 C   0  0  1  0  0  0  0  0  0  0  0  0
   -0.1610   17.7340   -2.8180 C   0  0  0  0  0  0  0  0  0  0  0  0
   -1.2850   18.5640   -2.2050 C   0  0  0  0  0  0  0  0  0  0  0  0
   -0.8310   19.2230   -0.9050 C   0  0  2  0  0  0  0  0  0  0  0  0
    0.1760   20.1940   -1.2080 O   0  0  0  0  0  0  0  0  0  0  0  0
   -0.2820   18.2080    0.1360 C   0  0  0  0  0  0  0  0  0  0  0  0
   -1.4450   17.3480    0.6890 C   0  0  0  0  0  0  0  0  0  0  0  0
    0.2720   19.0140    1.3420 C   0  0  0  0  0  0  0  0  0  0  0  0
    1.4440   15.6920   -2.5360 C   0  0  1  0  0  0  0  0  0  0  0  0
    2.4140   16.5480   -3.4070 C   0  0  0  0  0  0  0  0  0  0  0  0
    0.7250   14.6960   -3.5200 C   0  0  0  0  0  0  0  0  0  0  0  0
    0.2160   13.3710   -2.9190 C   0  0  0  0  0  0  0  0  0  0  0  0
    1.3100   12.6900   -2.0900 C   0  0  2  0  0  0  0  0  0  0  0  0
    2.4920   12.3380   -3.0550 C   0  0  0  0  0  0  0  0  0  0  0  0
   -1.3213   10.3561   -2.6037 H   0  0  0  0  0  0  0  0  0  0  0  0
   -0.2103   11.1346   -3.7811 H   0  0  0  0  0  0  0  0  0  0  0  0
   -0.4117    9.3496   -3.7811 H   0  0  0  0  0  0  0  0  0  0  0  0
    1.7020    9.9527   -2.7244 H   0  0  0  0  0  0  0  0  0  0  0  0
    0.1518    8.0873   -1.7829 H   0  0  0  0  0  0  0  0  0  0  0  0
    1.5962    8.6564   -0.8171 H   0  0  0  0  0  0  0  0  0  0  0  0
    0.1622    8.7558    0.8975 H   0  0  0  0  0  0  0  0  0  0  0  0
   -0.3884   10.2910    0.1060 H   0  0  0  0  0  0  0  0  0  0  0  0
   -1.4922    7.8918    0.6199 H   0  0  0  0  0  0  0  0  0  0  0  0
   -2.7426   11.4470    0.2311 H   0  0  0  0  0  0  0  0  0  0  0  0
   -1.8616   11.1715   -1.3099 H   0  0  0  0  0  0  0  0  0  0  0  0
   -3.6534   11.2975   -1.3099 H   0  0  0  0  0  0  0  0  0  0  0  0
   -4.3680    8.8798    0.8738 H   0  0  0  0  0  0  0  0  0  0  0  0
   -5.0089    9.5930   -0.6453 H   0  0  0  0  0  0  0  0  0  0  0  0
   -4.3517    7.9212   -0.6453 H   0  0  0  0  0  0  0  0  0  0  0  0
   -0.1275   11.4888   -0.9658 H   0  0  0  0  0  0  0  0  0  0  0  0
    1.5237   11.0115    0.7324 H   0  0  0  0  0  0  0  0  0  0  0  0
    2.7390   10.5362   -0.4732 H   0  0  0  0  0  0  0  0  0  0  0  0
    2.6934   13.0131    0.9525 H   0  0  0  0  0  0  0  0  0  0  0  0
    3.6660   12.7204   -0.4867 H   0  0  0  0  0  0  0  0  0  0  0  0
    0.8786   13.8587    1.1228 H   0  0  0  0  0  0  0  0  0  0  0  0
    0.1695   14.9819   -0.0864 H   0  0  0  0  0  0  0  0  0  0  0  0
   -0.3012   13.2484   -0.0864 H   0  0  0  0  0  0  0  0  0  0  0  0
    3.2188   14.5559   -2.0037 H   0  0  0  0  0  0  0  0  0  0  0  0
    3.2202   15.3253    0.4554 H   0  0  0  0  0  0  0  0  0  0  0  0
    3.6997   16.4723   -0.9025 H   0  0  0  0  0  0  0  0  0  0  0  0
    2.1798   17.4854    0.9957 H   0  0  0  0  0  0  0  0  0  0  0  0
   -0.4588   15.9246   -1.6304 H   0  0  0  0  0  0  0  0  0  0  0  0
    0.6758   18.4030   -3.0674 H   0  0  0  0  0  0  0  0  0  0  0  0
   -0.5626   17.2373   -3.7135 H   0  0  0  0  0  0  0  0  0  0  0  0
   -1.5858   19.3453   -2.9186 H   0  0  0  0  0  0  0  0  0  0  0  0
   -2.1321   17.8981   -1.9835 H   0  0  0  0  0  0  0  0  0  0  0  0
   -1.7132   19.6951   -0.4479 H   0  0  0  0  0  0  0  0  0  0  0  0
   -0.1940   20.8040   -1.8680 H   0  0  0  0  0  0  0  0  0  0  0  0
   -1.4226   17.3646    1.7886 H   0  0  0  0  0  0  0  0  0  0  0  0
   -2.4033   17.7564    0.3356 H   0  0  0  0  0  0  0  0  0  0  0  0
   -1.3353   16.3121    0.3356 H   0  0  0  0  0  0  0  0  0  0  0  0
   -0.0534   18.5405    2.2800 H   0  0  0  0  0  0  0  0  0  0  0  0
    1.3711   19.0275    1.3002 H   0  0  0  0  0  0  0  0  0  0  0  0
   -0.1092   20.0450    1.3002 H   0  0  0  0  0  0  0  0  0  0  0  0
    3.0763   17.1325   -2.7515 H   0  0  0  0  0  0  0  0  0  0  0  0
    3.0192   15.8842   -4.0419 H   0  0  0  0  0  0  0  0  0  0  0  0
    1.8306   17.2311   -4.0419 H   0  0  0  0  0  0  0  0  0  0  0  0
   -0.1409   15.2205   -3.9504 H   0  0  0  0  0  0  0  0  0  0  0  0
    1.4961   14.4042   -4.2482 H   0  0  0  0  0  0  0  0  0  0  0  0
   -0.6495   13.5779   -2.2724 H   0  0  0  0  0  0  0  0  0  0  0  0
   -0.0706   12.6994   -3.7417 H   0  0  0  0  0  0  0  0  0  0  0  0
    3.3813   12.0732   -2.4642 H   0  0  0  0  0  0  0  0  0  0  0  0
    2.2062   11.4860   -3.6893 H   0  0  0  0  0  0  0  0  0  0  0  0
    2.7189   13.2076   -3.6893 H   0  0  0  0  0  0  0  0  0  0  0  0
  1  2  1  0
  2  3  1  0
  3  4  1  0
  4  5  1  0
  5  6  1  0
  6  7  1  0
  7  8  1  0
  7  9  1  0
  2 10  1  0
 10 11  1  0
 11 12  1  0
 12 13  1  0
 13 14  1  1
 13 15  1  0
 15 16  1  0
 16 17  1  0
 17 18  2  0
 18 19  1  0
 19 20  1  0
 20 21  1  0
 21 22  1  0
 22 23  1  0
 22 24  1  0
 24 25  1  0
 24 26  1  0
 19 27  1  0
 27 28  1  6
 27 29  1  0
 29 30  1  0
 30 31  1  0
 31 32  1  6
  7  5  1  0
 31 10  1  0
 31 13  1  0
 27 15  1  0
 24 18  1  0
  1 33  1  0
  1 34  1  0
  1 35  1  0
  2 36  1  6
  3 37  1  0
  3 38  1  0
  4 39  1  0
  4 40  1  0
  5 41  1  1
  8 42  1  0
  8 43  1  0
  8 44  1  0
  9 45  1  0
  9 46  1  0
  9 47  1  0
 10 48  1  1
 11 49  1  0
 11 50  1  0
 12 51  1  0
 12 52  1  0
 14 53  1  0
 14 54  1  0
 14 55  1  0
 15 56  1  6
 16 57  1  0
 16 58  1  0
 17 59  1  0
 19 60  1  1
 20 61  1  0
 20 62  1  0
 21 63  1  0
 21 64  1  0
 22 65  1  1
 23 66  1  0
 25 67  1  0
 25 68  1  0
 25 69  1  0
 26 70  1  0
 26 71  1  0
 26 72  1  0
 28 73  1  0
 28 74  1  0
 28 75  1  0
 29 76  1  0
 29 77  1  0
 30 78  1  0
 30 79  1  0
 32 80  1  0
 32 81  1  0
 32 82  1  0
M  END
>  <meeko>  (8) 
{"is_sidechain": [false], "intermolecular_energy": 2.731, "internal_energy": -0.839}

$$$$
EPH_relaxed_0001_pdb2pqr_Repair_86_r2_0001_out
     RDKit          3D

 82 86  0  0  0  0  0  0  0  0999 V2000
    2.1400   18.9240   -2.7540 C   0  0  0  0  0  0  0  0  0  0  0  0
    1.8430   18.9860   -1.2530 C   0  0  2  0  0  0  0  0  0  0  0  0
    3.0200   19.5800   -0.4520 C   0  0  0  0  0  0  0  0  0  0  0  0
    2.7160   19.7730    1.0360 C   0  0  0  0  0  0  0  0  0  0  0  0
    3.9520   19.6490    1.8740 C   0  0  2  0  0  0  0  0  0  0  0  0
    3.9500   18.5420    2.7850 O   0  0  0  0  0  0  0  0  0  0  0  0
    3.9670   19.8500    3.3780 C   0  0  0  0  0  0  0  0  0  0  0  0
    2.7200   20.1930    4.1320 C   0  0  0  0  0  0  0  0  0  0  0  0
    5.2640   20.1940    4.0410 C   0  0  0  0  0  0  0  0  0  0  0  0
    1.5070   17.5940   -0.7310 C   0  0  1  0  0  0  0  0  0  0  0  0
    0.3690   17.6100    0.3240 C   0  0  0  0  0  0  0  0  0  0  0  0
   -0.4490   16.3090    0.1190 C   0  0  0  0  0  0  0  0  0  0  0  0
    0.4290   15.4390   -0.8110 C   0  0  1  0  0  0  0  0  0  0  0  0
    1.4800   14.7770    0.1340 C   0  0  0  0  0  0  0  0  0  0  0  0
   -0.3240   14.3730   -1.6730 C   0  0  2  0  0  0  0  0  0  0  0  0
   -1.0590   13.2860   -0.8710 C   0  0  0  0  0  0  0  0  0  0  0  0
   -0.2570   12.0640   -0.5680 C   0  0  0  0  0  0  0  0  0  0  0  0
    0.9020   11.7220   -1.1620 C   0  0  0  0  0  0  0  0  0  0  0  0
    1.4690   12.5540   -2.3190 C   0  0  1  0  0  0  0  0  0  0  0  0
    1.9160   11.6090   -3.4660 C   0  0  0  0  0  0  0  0  0  0  0  0
    2.8870   10.5320   -2.9910 C   0  0  0  0  0  0  0  0  0  0  0  0
    2.2650    9.6890   -1.8800 C   0  0  2  0  0  0  0  0  0  0  0  0
    1.1740    8.9400   -2.4260 O   0  0  0  0  0  0  0  0  0  0  0  0
    1.7680   10.5350   -0.6750 C   0  0  0  0  0  0  0  0  0  0  0  0
    2.9830   11.1040    0.0980 C   0  0  0  0  0  0  0  0  0  0  0  0
    1.0370    9.5800    0.3080 C   0  0  0  0  0  0  0  0  0  0  0  0
    0.5500   13.7440   -2.8330 C   0  0  1  0  0  0  0  0  0  0  0  0
   -0.4500   13.2190   -3.9080 C   0  0  0  0  0  0  0  0  0  0  0  0
    1.4510   14.8170   -3.5520 C   0  0  0  0  0  0  0  0  0  0  0  0
    2.0690   15.9130   -2.6640 C   0  0  0  0  0  0  0  0  0  0  0  0
    1.0080   16.5500   -1.7600 C   0  0  2  0  0  0  0  0  0  0  0  0
   -0.0520   17.2420   -2.6830 C   0  0  0  0  0  0  0  0  0  0  0  0
    3.2062   18.7014   -2.9079 H   0  0  0  0  0  0  0  0  0  0  0  0
    1.5300   18.1338   -3.2161 H   0  0  0  0  0  0  0  0  0  0  0  0
    1.8971   19.8922   -3.2161 H   0  0  0  0  0  0  0  0  0  0  0  0
    0.9794   19.6529   -1.1141 H   0  0  0  0  0  0  0  0  0  0  0  0
    3.8811   18.9019   -0.5455 H   0  0  0  0  0  0  0  0  0  0  0  0
    3.2235   20.5767   -0.8706 H   0  0  0  0  0  0  0  0  0  0  0  0
    2.2831   20.7733    1.1848 H   0  0  0  0  0  0  0  0  0  0  0  0
    2.0104   18.9884    1.3468 H   0  0  0  0  0  0  0  0  0  0  0  0
    4.5694   20.0702    1.0669 H   0  0  0  0  0  0  0  0  0  0  0  0
    2.9182   20.1385    5.2126 H   0  0  0  0  0  0  0  0  0  0  0  0
    2.4010   21.2123    3.8687 H   0  0  0  0  0  0  0  0  0  0  0  0
    1.9246   19.4803    3.8687 H   0  0  0  0  0  0  0  0  0  0  0  0
    5.1377   20.1605    5.1332 H   0  0  0  0  0  0  0  0  0  0  0  0
    6.0340   19.4690    3.7385 H   0  0  0  0  0  0  0  0  0  0  0  0
    5.5735   21.2053    3.7385 H   0  0  0  0  0  0  0  0  0  0  0  0
    2.4938   17.2993   -0.3444 H   0  0  0  0  0  0  0  0  0  0  0  0
    0.7933   17.6348    1.3386 H   0  0  0  0  0  0  0  0  0  0  0  0
   -0.2672   18.4995    0.2054 H   0  0  0  0  0  0  0  0  0  0  0  0
   -0.6185   15.8013    1.0800 H   0  0  0  0  0  0  0  0  0  0  0  0
   -1.4435   16.5044   -0.3086 H   0  0  0  0  0  0  0  0  0  0  0  0
    1.1956   14.9561    1.1814 H   0  0  0  0  0  0  0  0  0  0  0  0
    1.5139   13.6942   -0.0567 H   0  0  0  0  0  0  0  0  0  0  0  0
    2.4713   15.2141   -0.0567 H   0  0  0  0  0  0  0  0  0  0  0  0
   -1.1112   14.9718   -2.1543 H   0  0  0  0  0  0  0  0  0  0  0  0
   -1.3800   13.7272    0.0842 H   0  0  0  0  0  0  0  0  0  0  0  0
   -1.8935   12.9523   -1.5053 H   0  0  0  0  0  0  0  0  0  0  0  0
   -0.6456   11.3857    0.2058 H   0  0  0  0  0  0  0  0  0  0  0  0
    2.3414   13.0860   -1.9116 H   0  0  0  0  0  0  0  0  0  0  0  0
    1.0254   11.1199   -3.8874 H   0  0  0  0  0  0  0  0  0  0  0  0
    2.4363   12.2197   -4.2185 H   0  0  0  0  0  0  0  0  0  0  0  0
    3.1429    9.8788   -3.8383 H   0  0  0  0  0  0  0  0  0  0  0  0
    3.7897   11.0218   -2.5970 H   0  0  0  0  0  0  0  0  0  0  0  0
    3.0494    9.0224   -1.4922 H   0  0  0  0  0  0  0  0  0  0  0  0
    1.4770    8.5450   -3.2610 H   0  0  0  0  0  0  0  0  0  0  0  0
    2.8018   11.0192    1.1797 H   0  0  0  0  0  0  0  0  0  0  0  0
    3.8861   10.5352   -0.1683 H   0  0  0  0  0  0  0  0  0  0  0  0
    3.1242   12.1619   -0.1683 H   0  0  0  0  0  0  0  0  0  0  0  0
    1.2634    9.8757    1.3430 H   0  0  0  0  0  0  0  0  0  0  0  0
   -0.0482    9.6399    0.1386 H   0  0  0  0  0  0  0  0  0  0  0  0
    1.3782    8.5481    0.1386 H   0  0  0  0  0  0  0  0  0  0  0  0
   -1.3182   12.7632   -3.4096 H   0  0  0  0  0  0  0  0  0  0  0  0
   -0.7861   14.0569   -4.5364 H   0  0  0  0  0  0  0  0  0  0  0  0
    0.0489   12.4665   -4.5364 H   0  0  0  0  0  0  0  0  0  0  0  0
    2.2770   14.2822   -4.0437 H   0  0  0  0  0  0  0  0  0  0  0  0
    0.7738   15.3492   -4.2363 H   0  0  0  0  0  0  0  0  0  0  0  0
    2.8553   15.4672   -2.0370 H   0  0  0  0  0  0  0  0  0  0  0  0
    2.4909   16.6941   -3.3136 H   0  0  0  0  0  0  0  0  0  0  0  0
   -0.8117   17.7380   -2.0610 H   0  0  0  0  0  0  0  0  0  0  0  0
    0.4467   17.9890   -3.3180 H   0  0  0  0  0  0  0  0  0  0  0  0
   -0.5352   16.4849   -3.3180 H   0  0  0  0  0  0  0  0  0  0  0  0
  1  2  1  0
  2  3  1  0
  3  4  1  0
  4  5  1  0
  5  6  1  0
  6  7  1  0
  7  8  1  0
  7  9  1  0
  2 10  1  0
 10 11  1  0
 11 12  1  0
 12 13  1  0
 13 14  1  1
 13 15  1  0
 15 16  1  0
 16 17  1  0
 17 18  2  0
 18 19  1  0
 19 20  1  0
 20 21  1  0
 21 22  1  0
 22 23  1  0
 22 24  1  0
 24 25  1  0
 24 26  1  0
 19 27  1  0
 27 28  1  6
 27 29  1  0
 29 30  1  0
 30 31  1  0
 31 32  1  6
  7  5  1  0
 31 10  1  0
 31 13  1  0
 27 15  1  0
 24 18  1  0
  1 33  1  0
  1 34  1  0
  1 35  1  0
  2 36  1  6
  3 37  1  0
  3 38  1  0
  4 39  1  0
  4 40  1  0
  5 41  1  6
  8 42  1  0
  8 43  1  0
  8 44  1  0
  9 45  1  0
  9 46  1  0
  9 47  1  0
 10 48  1  1
 11 49  1  0
 11 50  1  0
 12 51  1  0
 12 52  1  0
 14 53  1  0
 14 54  1  0
 14 55  1  0
 15 56  1  6
 16 57  1  0
 16 58  1  0
 17 59  1  0
 19 60  1  1
 20 61  1  0
 20 62  1  0
 21 63  1  0
 21 64  1  0
 22 65  1  1
 23 66  1  0
 25 67  1  0
 25 68  1  0
 25 69  1  0
 26 70  1  0
 26 71  1  0
 26 72  1  0
 28 73  1  0
 28 74  1  0
 28 75  1  0
 29 76  1  0
 29 77  1  0
 30 78  1  0
 30 79  1  0
 32 80  1  0
 32 81  1  0
 32 82  1  0
M  END
>  <meeko>  (9) 
{"is_sidechain": [false], "intermolecular_energy": 2.731, "internal_energy": -0.839}

$$$$
EPH_relaxed_0001_pdb2pqr_Repair_86_r2_0001_out
     RDKit          3D

 82 86  0  0  0  0  0  0  0  0999 V2000
   -0.8620   16.3510   -5.8410 C   0  0  0  0  0  0  0  0  0  0  0  0
    0.2270   15.6490   -6.6570 C   0  0  2  0  0  0  0  0  0  0  0  0
   -0.1770   15.4710   -8.1340 C   0  0  0  0  0  0  0  0  0  0  0  0
    0.4650   16.4940   -9.0750 C   0  0  0  0  0  0  0  0  0  0  0  0
    1.8640   16.1060   -9.4450 C   0  0  2  0  0  0  0  0  0  0  0  0
    2.3350   16.6660  -10.6780 O   0  0  0  0  0  0  0  0  0  0  0  0
    2.2020   15.2360  -10.6410 C   0  0  0  0  0  0  0  0  0  0  0  0
    1.1350   14.6990  -11.5420 C   0  0  0  0  0  0  0  0  0  0  0  0
    3.5110   14.5090  -10.6490 C   0  0  0  0  0  0  0  0  0  0  0  0
    0.5480   14.2940   -6.0380 C   0  0  1  0  0  0  0  0  0  0  0  0
    1.8160   13.6420   -6.6510 C   0  0  0  0  0  0  0  0  0  0  0  0
    2.5230   12.8730   -5.5050 C   0  0  0  0  0  0  0  0  0  0  0  0
    1.4790   12.8280   -4.3640 C   0  0  1  0  0  0  0  0  0  0  0  0
    0.5270   11.6490   -4.7380 C   0  0  0  0  0  0  0  0  0  0  0  0
    2.0450   12.6760   -2.9150 C   0  0  2  0  0  0  0  0  0  0  0  0
    2.8180   11.3710   -2.6500 C   0  0  0  0  0  0  0  0  0  0  0  0
    1.9930   10.2330   -2.1460 C   0  0  0  0  0  0  0  0  0  0  0  0
    0.7480   10.3310   -1.6460 C   0  0  0  0  0  0  0  0  0  0  0  0
    0.0800   11.6990   -1.4580 C   0  0  1  0  0  0  0  0  0  0  0  0
   -0.5720   11.7680   -0.0520 C   0  0  0  0  0  0  0  0  0  0  0  0
   -1.5310   10.6100    0.2060 C   0  0  0  0  0  0  0  0  0  0  0  0
   -0.8160    9.2690    0.0670 C   0  0  2  0  0  0  0  0  0  0  0  0
    0.1460    9.1480    1.1200 O   0  0  0  0  0  0  0  0  0  0  0  0
   -0.1130    9.0890   -1.3070 C   0  0  0  0  0  0  0  0  0  0  0  0
   -1.1780    8.9170   -2.4180 C   0  0  0  0  0  0  0  0  0  0  0  0
    0.6870    7.7590   -1.2640 C   0  0  0  0  0  0  0  0  0  0  0  0
    0.9890   12.9640   -1.7720 C   0  0  1  0  0  0  0  0  0  0  0  0
    1.8030   13.3620   -0.5040 C   0  0  0  0  0  0  0  0  0  0  0  0
    0.0630   14.1920   -2.1100 C   0  0  0  0  0  0  0  0  0  0  0  0
   -0.3650   14.3560   -3.5800 C   0  0  0  0  0  0  0  0  0  0  0  0
    0.8430   14.2580   -4.5170 C   0  0  2  0  0  0  0  0  0  0  0  0
    1.8080   15.4450   -4.1800 C   0  0  0  0  0  0  0  0  0  0  0  0
   -0.6582   16.2197   -4.7680 H   0  0  0  0  0  0  0  0  0  0  0  0
   -0.8684   17.4237   -6.0844 H   0  0  0  0  0  0  0  0  0  0  0  0
   -1.8417   15.9139   -6.0844 H   0  0  0  0  0  0  0  0  0  0  0  0
    1.1211   16.2894   -6.6347 H   0  0  0  0  0  0  0  0  0  0  0  0
    0.1249   14.4640   -8.4577 H   0  0  0  0  0  0  0  0  0  0  0  0
   -1.2653   15.6211   -8.1901 H   0  0  0  0  0  0  0  0  0  0  0  0
   -0.1396   16.5639   -9.9913 H   0  0  0  0  0  0  0  0  0  0  0  0
    0.5044   17.4617   -8.5535 H   0  0  0  0  0  0  0  0  0  0  0  0
    2.1532   16.0485   -8.3853 H   0  0  0  0  0  0  0  0  0  0  0  0
    0.3157   14.2866  -10.9348 H   0  0  0  0  0  0  0  0  0  0  0  0
    0.7487   15.5100  -12.1768 H   0  0  0  0  0  0  0  0  0  0  0  0
    1.5562   13.9055  -12.1768 H   0  0  0  0  0  0  0  0  0  0  0  0
    3.8364   14.3283   -9.6139 H   0  0  0  0  0  0  0  0  0  0  0  0
    3.3930   13.5471  -11.1695 H   0  0  0  0  0  0  0  0  0  0  0  0
    4.2652   15.1175  -11.1695 H   0  0  0  0  0  0  0  0  0  0  0  0
   -0.3937   13.7670   -6.2511 H   0  0  0  0  0  0  0  0  0  0  0  0
    1.5333   12.9470   -7.4553 H   0  0  0  0  0  0  0  0  0  0  0  0
    2.4811   14.4035   -7.0844 H   0  0  0  0  0  0  0  0  0  0  0  0
    2.7906   11.8558   -5.8270 H   0  0  0  0  0  0  0  0  0  0  0  0
    3.4607   13.3568   -5.1940 H   0  0  0  0  0  0  0  0  0  0  0  0
    0.1472   11.1787   -3.8190 H   0  0  0  0  0  0  0  0  0  0  0  0
   -0.3174   12.0329   -5.3293 H   0  0  0  0  0  0  0  0  0  0  0  0
    1.0802   10.9045   -5.3293 H   0  0  0  0  0  0  0  0  0  0  0  0
    2.7925   13.4816   -2.8687 H   0  0  0  0  0  0  0  0  0  0  0  0
    3.2896   11.0576   -3.5931 H   0  0  0  0  0  0  0  0  0  0  0  0
    3.5396   11.6010   -1.8522 H   0  0  0  0  0  0  0  0  0  0  0  0
    2.4413    9.2294   -2.1871 H   0  0  0  0  0  0  0  0  0  0  0  0
   -0.6971   11.7668   -2.2336 H   0  0  0  0  0  0  0  0  0  0  0  0
    0.2236   11.7427    0.7072 H   0  0  0  0  0  0  0  0  0  0  0  0
   -1.1530   12.7006    0.0010 H   0  0  0  0  0  0  0  0  0  0  0  0
   -1.9361   10.6981    1.2249 H   0  0  0  0  0  0  0  0  0  0  0  0
   -2.3424   10.6540   -0.5354 H   0  0  0  0  0  0  0  0  0  0  0  0
   -1.5792    8.4797    0.1339 H   0  0  0  0  0  0  0  0  0  0  0  0
    0.7070    9.9420    1.0980 H   0  0  0  0  0  0  0  0  0  0  0  0
   -2.1647    8.7576   -1.9586 H   0  0  0  0  0  0  0  0  0  0  0  0
   -1.2061    9.8222   -3.0423 H   0  0  0  0  0  0  0  0  0  0  0  0
   -0.9197    8.0489   -3.0423 H   0  0  0  0  0  0  0  0  0  0  0  0
    0.8611    7.4695   -0.2172 H   0  0  0  0  0  0  0  0  0  0  0  0
    0.1137    6.9697   -1.7722 H   0  0  0  0  0  0  0  0  0  0  0  0
    1.6530    7.8955   -1.7722 H   0  0  0  0  0  0  0  0  0  0  0  0
    1.2365   13.0850    0.3973 H   0  0  0  0  0  0  0  0  0  0  0  0
    2.7680   12.8341   -0.5072 H   0  0  0  0  0  0  0  0  0  0  0  0
    1.9790   14.4478   -0.5072 H   0  0  0  0  0  0  0  0  0  0  0  0
   -0.8513   14.0952   -1.5062 H   0  0  0  0  0  0  0  0  0  0  0  0
    0.6714   15.0808   -1.8869 H   0  0  0  0  0  0  0  0  0  0  0  0
   -1.0841   13.5639   -3.8359 H   0  0  0  0  0  0  0  0  0  0  0  0
   -0.8247   15.3478   -3.7029 H   0  0  0  0  0  0  0  0  0  0  0  0
    1.8931   15.5497   -3.0883 H   0  0  0  0  0  0  0  0  0  0  0  0
    2.8012   15.2428   -4.6075 H   0  0  0  0  0  0  0  0  0  0  0  0
    1.4074   16.3760   -4.6075 H   0  0  0  0  0  0  0  0  0  0  0  0
  1  2  1  0
  2  3  1  0
  3  4  1  0
  4  5  1  0
  5  6  1  0
  6  7  1  0
  7  8  1  0
  7  9  1  0
  2 10  1  0
 10 11  1  0
 11 12  1  0
 12 13  1  0
 13 14  1  6
 13 15  1  0
 15 16  1  0
 16 17  1  0
 17 18  2  0
 18 19  1  0
 19 20  1  0
 20 21  1  0
 21 22  1  0
 22 23  1  0
 22 24  1  0
 24 25  1  0
 24 26  1  0
 19 27  1  0
 27 28  1  1
 27 29  1  0
 29 30  1  0
 30 31  1  0
 31 32  1  1
  7  5  1  0
 31 10  1  0
 31 13  1  0
 27 15  1  0
 24 18  1  0
  1 33  1  0
  1 34  1  0
  1 35  1  0
  2 36  1  6
  3 37  1  0
  3 38  1  0
  4 39  1  0
  4 40  1  0
  5 41  1  1
  8 42  1  0
  8 43  1  0
  8 44  1  0
  9 45  1  0
  9 46  1  0
  9 47  1  0
 10 48  1  1
 11 49  1  0
 11 50  1  0
 12 51  1  0
 12 52  1  0
 14 53  1  0
 14 54  1  0
 14 55  1  0
 15 56  1  6
 16 57  1  0
 16 58  1  0
 17 59  1  0
 19 60  1  6
 20 61  1  0
 20 62  1  0
 21 63  1  0
 21 64  1  0
 22 65  1  1
 23 66  1  0
 25 67  1  0
 25 68  1  0
 25 69  1  0
 26 70  1  0
 26 71  1  0
 26 72  1  0
 28 73  1  0
 28 74  1  0
 28 75  1  0
 29 76  1  0
 29 77  1  0
 30 78  1  0
 30 79  1  0
 32 80  1  0
 32 81  1  0
 32 82  1  0
M  END
>  <meeko>  (10) 
{"is_sidechain": [false], "intermolecular_energy": 2.731, "internal_energy": -0.839}

$$$$
EPH_relaxed_0001_pdb2pqr_Repair_86_r2_0001_out
     RDKit          3D

 82 86  0  0  0  0  0  0  0  0999 V2000
   -0.2830   15.0670   -7.6630 C   0  0  0  0  0  0  0  0  0  0  0  0
    1.0760   15.0680   -6.9580 C   0  0  2  0  0  0  0  0  0  0  0  0
    2.2470   15.1750   -7.9560 C   0  0  0  0  0  0  0  0  0  0  0  0
    2.2740   16.4940   -8.7340 C   0  0  0  0  0  0  0  0  0  0  0  0
    1.8740   16.3010  -10.1650 C   0  0  2  0  0  0  0  0  0  0  0  0
    1.1960   15.0670  -10.4370 O   0  0  0  0  0  0  0  0  0  0  0  0
    2.4760   15.2390  -11.0660 C   0  0  0  0  0  0  0  0  0  0  0  0
    3.5300   14.3000  -10.5690 C   0  0  0  0  0  0  0  0  0  0  0  0
    2.3980   15.4300  -12.5490 C   0  0  0  0  0  0  0  0  0  0  0  0
    1.2250   13.8070   -6.1150 C   0  0  1  0  0  0  0  0  0  0  0  0
    2.6570   13.2120   -6.1760 C   0  0  0  0  0  0  0  0  0  0  0  0
    2.9540   12.6150   -4.7770 C   0  0  0  0  0  0  0  0  0  0  0  0
    1.5800   12.5870   -4.0650 C   0  0  1  0  0  0  0  0  0  0  0  0
    0.8760   11.3020   -4.6030 C   0  0  0  0  0  0  0  0  0  0  0  0
    1.6110   12.6170   -2.5030 C   0  0  2  0  0  0  0  0  0  0  0  0
    2.3030   11.4130   -1.8400 C   0  0  0  0  0  0  0  0  0  0  0  0
    1.4100   10.2600   -1.5210 C   0  0  0  0  0  0  0  0  0  0  0  0
    0.0650   10.2970   -1.4920 C   0  0  0  0  0  0  0  0  0  0  0  0
   -0.6910   11.6150   -1.7040 C   0  0  1  0  0  0  0  0  0  0  0  0
   -1.7960   11.7580   -0.6250 C   0  0  0  0  0  0  0  0  0  0  0  0
   -2.7280   10.5520   -0.5780 C   0  0  0  0  0  0  0  0  0  0  0  0
   -1.9470    9.2690   -0.3070 C   0  0  2  0  0  0  0  0  0  0  0  0
   -1.4090    9.3270    1.0170 O   0  0  0  0  0  0  0  0  0  0  0  0
   -0.8000    9.0230   -1.3270 C   0  0  0  0  0  0  0  0  0  0  0  0
   -1.4000    8.6600   -2.7080 C   0  0  0  0  0  0  0  0  0  0  0  0
   -0.0040    7.7750   -0.8590 C   0  0  0  0  0  0  0  0  0  0  0  0
    0.2090   12.9180   -1.8320 C   0  0  1  0  0  0  0  0  0  0  0  0
    0.5090   13.5000   -0.4170 C   0  0  0  0  0  0  0  0  0  0  0  0
   -0.5970   14.0270   -2.6060 C   0  0  0  0  0  0  0  0  0  0  0  0
   -0.4920   14.0180   -4.1430 C   0  0  0  0  0  0  0  0  0  0  0  0
    0.9710   13.9370   -4.5920 C   0  0  2  0  0  0  0  0  0  0  0  0
    1.6990   15.2270   -4.0840 C   0  0  0  0  0  0  0  0  0  0  0  0
   -1.0860   15.0664   -6.9113 H   0  0  0  0  0  0  0  0  0  0  0  0
   -0.3704   15.9651   -8.2921 H   0  0  0  0  0  0  0  0  0  0  0  0
   -0.3690   14.1688   -8.2921 H   0  0  0  0  0  0  0  0  0  0  0  0
    1.1119   15.9556   -6.3093 H   0  0  0  0  0  0  0  0  0  0  0  0
    3.1896   15.0823   -7.3967 H   0  0  0  0  0  0  0  0  0  0  0  0
    2.1157   14.3694   -8.6934 H   0  0  0  0  0  0  0  0  0  0  0  0
    1.5767   17.2013   -8.2611 H   0  0  0  0  0  0  0  0  0  0  0  0
    3.3028   16.8827   -8.7147 H   0  0  0  0  0  0  0  0  0  0  0  0
    1.7296   17.3837  -10.2947 H   0  0  0  0  0  0  0  0  0  0  0  0
    3.5311   14.2990   -9.4690 H   0  0  0  0  0  0  0  0  0  0  0  0
    3.3194   13.2848  -10.9363 H   0  0  0  0  0  0  0  0  0  0  0  0
    4.5143   14.6260  -10.9363 H   0  0  0  0  0  0  0  0  0  0  0  0
    1.9905   16.4277  -12.7693 H   0  0  0  0  0  0  0  0  0  0  0  0
    3.4046   15.3409  -12.9836 H   0  0  0  0  0  0  0  0  0  0  0  0
    1.7416   14.6617  -12.9836 H   0  0  0  0  0  0  0  0  0  0  0  0
    0.4445   13.1838   -6.5760 H   0  0  0  0  0  0  0  0  0  0  0  0
    2.7075   12.4244   -6.9423 H   0  0  0  0  0  0  0  0  0  0  0  0
    3.3943   13.9844   -6.4401 H   0  0  0  0  0  0  0  0  0  0  0  0
    3.3652   11.5988   -4.8677 H   0  0  0  0  0  0  0  0  0  0  0  0
    3.6996   13.2033   -4.2220 H   0  0  0  0  0  0  0  0  0  0  0  0
    0.5389   10.6866   -3.7558 H   0  0  0  0  0  0  0  0  0  0  0  0
    0.0088   11.5884   -5.2162 H   0  0  0  0  0  0  0  0  0  0  0  0
    1.5842   10.7253   -5.2162 H   0  0  0  0  0  0  0  0  0  0  0  0
    2.2568   13.4835   -2.2976 H   0  0  0  0  0  0  0  0  0  0  0  0
    3.0893   11.0555   -2.5211 H   0  0  0  0  0  0  0  0  0  0  0  0
    2.6871   11.7762   -0.8754 H   0  0  0  0  0  0  0  0  0  0  0  0
    1.8922    9.2987   -1.2901 H   0  0  0  0  0  0  0  0  0  0  0  0
   -1.1501   11.5446   -2.7011 H   0  0  0  0  0  0  0  0  0  0  0  0
   -1.3160   11.8710    0.3583 H   0  0  0  0  0  0  0  0  0  0  0  0
   -2.4026   12.6385   -0.8834 H   0  0  0  0  0  0  0  0  0  0  0  0
   -3.4673   10.6994    0.2231 H   0  0  0  0  0  0  0  0  0  0  0  0
   -3.2300   10.4582   -1.5523 H   0  0  0  0  0  0  0  0  0  0  0  0
   -2.6478    8.4279   -0.4140 H   0  0  0  0  0  0  0  0  0  0  0  0
   -2.1570    9.3470    1.6380 H   0  0  0  0  0  0  0  0  0  0  0  0
   -2.3332    8.0954   -2.5654 H   0  0  0  0  0  0  0  0  0  0  0  0
   -1.6114    9.5818   -3.2697 H   0  0  0  0  0  0  0  0  0  0  0  0
   -0.6815    8.0449   -3.2697 H   0  0  0  0  0  0  0  0  0  0  0  0
    0.0159    7.7438    0.2404 H   0  0  0  0  0  0  0  0  0  0  0  0
   -0.4892    6.8655   -1.2429 H   0  0  0  0  0  0  0  0  0  0  0  0
    1.0253    7.8314   -1.2429 H   0  0  0  0  0  0  0  0  0  0  0  0
    0.1483   12.8003    0.3513 H   0  0  0  0  0  0  0  0  0  0  0  0
    1.5935   13.6437   -0.3020 H   0  0  0  0  0  0  0  0  0  0  0  0
   -0.0032   14.4667   -0.3020 H   0  0  0  0  0  0  0  0  0  0  0  0
   -1.6590   13.9098   -2.3445 H   0  0  0  0  0  0  0  0  0  0  0  0
   -0.1471   14.9806   -2.2928 H   0  0  0  0  0  0  0  0  0  0  0  0
   -1.0378   13.1475   -4.5359 H   0  0  0  0  0  0  0  0  0  0  0  0
   -0.9266   14.9515   -4.5299 H   0  0  0  0  0  0  0  0  0  0  0  0
    1.7041   15.2361   -2.9840 H   0  0  0  0  0  0  0  0  0  0  0  0
    2.7343   15.2341   -4.4556 H   0  0  0  0  0  0  0  0  0  0  0  0
    1.1700   16.1170   -4.4556 H   0  0  0  0  0  0  0  0  0  0  0  0
  1  2  1  0
  2  3  1  0
  3  4  1  0
  4  5  1  0
  5  6  1  0
  6  7  1  0
  7  8  1  0
  7  9  1  0
  2 10  1  0
 10 11  1  0
 11 12  1  0
 12 13  1  0
 13 14  1  1
 13 15  1  0
 15 16  1  0
 16 17  1  0
 17 18  2  0
 18 19  1  0
 19 20  1  0
 20 21  1  0
 21 22  1  0
 22 23  1  0
 22 24  1  0
 24 25  1  0
 24 26  1  0
 19 27  1  0
 27 28  1  1
 27 29  1  0
 29 30  1  0
 30 31  1  0
 31 32  1  1
  7  5  1  0
 31 10  1  0
 31 13  1  0
 27 15  1  0
 24 18  1  0
  1 33  1  0
  1 34  1  0
  1 35  1  0
  2 36  1  1
  3 37  1  0
  3 38  1  0
  4 39  1  0
  4 40  1  0
  5 41  1  6
  8 42  1  0
  8 43  1  0
  8 44  1  0
  9 45  1  0
  9 46  1  0
  9 47  1  0
 10 48  1  6
 11 49  1  0
 11 50  1  0
 12 51  1  0
 12 52  1  0
 14 53  1  0
 14 54  1  0
 14 55  1  0
 15 56  1  6
 16 57  1  0
 16 58  1  0
 17 59  1  0
 19 60  1  6
 20 61  1  0
 20 62  1  0
 21 63  1  0
 21 64  1  0
 22 65  1  1
 23 66  1  0
 25 67  1  0
 25 68  1  0
 25 69  1  0
 26 70  1  0
 26 71  1  0
 26 72  1  0
 28 73  1  0
 28 74  1  0
 28 75  1  0
 29 76  1  0
 29 77  1  0
 30 78  1  0
 30 79  1  0
 32 80  1  0
 32 81  1  0
 32 82  1  0
M  END
>  <meeko>  (11) 
{"is_sidechain": [false], "intermolecular_energy": 2.731, "internal_energy": -0.839}

$$$$
EPH_relaxed_0001_pdb2pqr_Repair_86_r2_0001_out
     RDKit          3D

 82 86  0  0  0  0  0  0  0  0999 V2000
   -0.0050   17.6300   -2.4540 C   0  0  0  0  0  0  0  0  0  0  0  0
   -0.2750   16.7240   -1.2500 C   0  0  2  0  0  0  0  0  0  0  0  0
   -0.3360   17.5170    0.0710 C   0  0  0  0  0  0  0  0  0  0  0  0
    0.4130   18.8520    0.0240 C   0  0  0  0  0  0  0  0  0  0  0  0
    1.8240   18.7130    0.5080 C   0  0  2  0  0  0  0  0  0  0  0  0
    2.6970   19.7840    0.1260 O   0  0  0  0  0  0  0  0  0  0  0  0
    3.0070   18.4900   -0.4150 C   0  0  0  0  0  0  0  0  0  0  0  0
    2.8320   18.3920   -1.8990 C   0  0  0  0  0  0  0  0  0  0  0  0
    4.2530   17.8830    0.1510 C   0  0  0  0  0  0  0  0  0  0  0  0
    0.7980   15.6450   -1.1600 C   0  0  1  0  0  0  0  0  0  0  0  0
    0.8850   15.0050    0.2510 C   0  0  0  0  0  0  0  0  0  0  0  0
    1.2440   13.5110    0.0420 C   0  0  0  0  0  0  0  0  0  0  0  0
    1.6750   13.4170   -1.4400 C   0  0  1  0  0  0  0  0  0  0  0  0
    3.1580   13.9060   -1.4580 C   0  0  0  0  0  0  0  0  0  0  0  0
    1.5210   12.0160   -2.1170 C   0  0  2  0  0  0  0  0  0  0  0  0
    2.3740   10.8940   -1.4970 C   0  0  0  0  0  0  0  0  0  0  0  0
    3.7310   10.7210   -2.0940 C   0  0  0  0  0  0  0  0  0  0  0  0
    4.1420   11.2390   -3.2660 C   0  0  0  0  0  0  0  0  0  0  0  0
    3.1700   12.0080   -4.1710 C   0  0  1  0  0  0  0  0  0  0  0  0
    3.3240   11.5140   -5.6340 C   0  0  0  0  0  0  0  0  0  0  0  0
    4.7650   11.5880   -6.1280 C   0  0  0  0  0  0  0  0  0  0  0  0
    5.6910   10.7640   -5.2370 C   0  0  2  0  0  0  0  0  0  0  0  0
    5.3580    9.3800   -5.3810 O   0  0  0  0  0  0  0  0  0  0  0  0
    5.6150   11.1660   -3.7370 C   0  0  0  0  0  0  0  0  0  0  0  0
    6.2580   12.5610   -3.5390 C   0  0  0  0  0  0  0  0  0  0  0  0
    6.4880   10.1680   -2.9310 C   0  0  0  0  0  0  0  0  0  0  0  0
    1.6550   12.0390   -3.6930 C   0  0  1  0  0  0  0  0  0  0  0  0
    0.9040   10.7790   -4.2230 C   0  0  0  0  0  0  0  0  0  0  0  0
    0.9390   13.2850   -4.3360 C   0  0  0  0  0  0  0  0  0  0  0  0
    1.0260   14.6130   -3.5600 C   0  0  0  0  0  0  0  0  0  0  0  0
    0.6480   14.4150   -2.0890 C   0  0  2  0  0  0  0  0  0  0  0  0
   -0.8450   13.9440   -2.0380 C   0  0  0  0  0  0  0  0  0  0  0  0
    0.2926   18.6287   -2.1019 H   0  0  0  0  0  0  0  0  0  0  0  0
    0.8039   17.1996   -3.0626 H   0  0  0  0  0  0  0  0  0  0  0  0
   -0.9175   17.7127   -3.0626 H   0  0  0  0  0  0  0  0  0  0  0  0
   -1.2596   16.2575   -1.4014 H   0  0  0  0  0  0  0  0  0  0  0  0
   -1.3914   17.7192    0.3060 H   0  0  0  0  0  0  0  0  0  0  0  0
    0.1547   16.9004    0.8385 H   0  0  0  0  0  0  0  0  0  0  0  0
    0.4264   19.2169   -1.0136 H   0  0  0  0  0  0  0  0  0  0  0  0
   -0.1078   19.5609    0.6845 H   0  0  0  0  0  0  0  0  0  0  0  0
    1.4859   18.1889    1.4141 H   0  0  0  0  0  0  0  0  0  0  0  0
    1.8924   17.8658   -2.1235 H   0  0  0  0  0  0  0  0  0  0  0  0
    2.7987   19.4027   -2.3318 H   0  0  0  0  0  0  0  0  0  0  0  0
    3.6763   17.8354   -2.3318 H   0  0  0  0  0  0  0  0  0  0  0  0
    4.2057   17.9061    1.2497 H   0  0  0  0  0  0  0  0  0  0  0  0
    4.3411   16.8410   -0.1904 H   0  0  0  0  0  0  0  0  0  0  0  0
    5.1278   18.4559   -0.1904 H   0  0  0  0  0  0  0  0  0  0  0  0
    1.6782   16.2346   -1.4559 H   0  0  0  0  0  0  0  0  0  0  0  0
    1.6653   15.5027    0.8454 H   0  0  0  0  0  0  0  0  0  0  0  0
   -0.0665   15.1110    0.7926 H   0  0  0  0  0  0  0  0  0  0  0  0
    2.0689   13.2133    0.7060 H   0  0  0  0  0  0  0  0  0  0  0  0
    0.4015   12.8431    0.2746 H   0  0  0  0  0  0  0  0  0  0  0  0
    3.5175   14.0246   -0.4252 H   0  0  0  0  0  0  0  0  0  0  0  0
    3.7818   13.1660   -1.9807 H   0  0  0  0  0  0  0  0  0  0  0  0
    3.2193   14.8719   -1.9807 H   0  0  0  0  0  0  0  0  0  0  0  0
    0.4762   11.7582   -1.8893 H   0  0  0  0  0  0  0  0  0  0  0  0
    2.4991   11.1142   -0.4265 H   0  0  0  0  0  0  0  0  0  0  0  0
    1.8332    9.9565   -1.6936 H   0  0  0  0  0  0  0  0  0  0  0  0
    4.4568   10.1189   -1.5278 H   0  0  0  0  0  0  0  0  0  0  0  0
    3.4622   13.0662   -4.1019 H   0  0  0  0  0  0  0  0  0  0  0  0
    2.9851   10.4691   -5.6908 H   0  0  0  0  0  0  0  0  0  0  0  0
    2.7176   12.1718   -6.2740 H   0  0  0  0  0  0  0  0  0  0  0  0
    4.8136   11.1983   -7.1555 H   0  0  0  0  0  0  0  0  0  0  0  0
    5.0924   12.6377   -6.0985 H   0  0  0  0  0  0  0  0  0  0  0  0
    6.7231   10.9604   -5.5629 H   0  0  0  0  0  0  0  0  0  0  0  0
    4.4910    9.2410   -4.9640 H   0  0  0  0  0  0  0  0  0  0  0  0
    6.3547   12.7708   -2.4635 H   0  0  0  0  0  0  0  0  0  0  0  0
    7.2536   12.5755   -4.0064 H   0  0  0  0  0  0  0  0  0  0  0  0
    5.6223   13.3274   -4.0064 H   0  0  0  0  0  0  0  0  0  0  0  0
    6.3396   10.3376   -1.8543 H   0  0  0  0  0  0  0  0  0  0  0  0
    6.1956    9.1381   -3.1836 H   0  0  0  0  0  0  0  0  0  0  0  0
    7.5476   10.3208   -3.1836 H   0  0  0  0  0  0  0  0  0  0  0  0
    0.5470   10.1801   -3.3722 H   0  0  0  0  0  0  0  0  0  0  0  0
    0.0462   11.0940   -4.8353 H   0  0  0  0  0  0  0  0  0  0  0  0
    1.5892   10.1743   -4.8353 H   0  0  0  0  0  0  0  0  0  0  0  0
    1.3846   13.4495   -5.3282 H   0  0  0  0  0  0  0  0  0  0  0  0
   -0.1305   13.0280   -4.3479 H   0  0  0  0  0  0  0  0  0  0  0  0
    2.0551   14.9970   -3.6184 H   0  0  0  0  0  0  0  0  0  0  0  0
    0.3216   15.3284   -4.0096 H   0  0  0  0  0  0  0  0  0  0  0  0
   -1.1623   13.8439   -0.9895 H   0  0  0  0  0  0  0  0  0  0  0  0
   -1.4808   14.6852   -2.5443 H   0  0  0  0  0  0  0  0  0  0  0  0
   -0.9404   12.9721   -2.5443 H   0  0  0  0  0  0  0  0  0  0  0  0
  1  2  1  0
  2  3  1  0
  3  4  1  0
  4  5  1  0
  5  6  1  0
  6  7  1  0
  7  8  1  0
  7  9  1  0
  2 10  1  0
 10 11  1  0
 11 12  1  0
 12 13  1  0
 13 14  1  1
 13 15  1  0
 15 16  1  0
 16 17  1  0
 17 18  2  0
 18 19  1  0
 19 20  1  0
 20 21  1  0
 21 22  1  0
 22 23  1  0
 22 24  1  0
 24 25  1  0
 24 26  1  0
 19 27  1  0
 27 28  1  6
 27 29  1  0
 29 30  1  0
 30 31  1  0
 31 32  1  6
  7  5  1  0
 31 10  1  0
 31 13  1  0
 27 15  1  0
 24 18  1  0
  1 33  1  0
  1 34  1  0
  1 35  1  0
  2 36  1  6
  3 37  1  0
  3 38  1  0
  4 39  1  0
  4 40  1  0
  5 41  1  1
  8 42  1  0
  8 43  1  0
  8 44  1  0
  9 45  1  0
  9 46  1  0
  9 47  1  0
 10 48  1  6
 11 49  1  0
 11 50  1  0
 12 51  1  0
 12 52  1  0
 14 53  1  0
 14 54  1  0
 14 55  1  0
 15 56  1  6
 16 57  1  0
 16 58  1  0
 17 59  1  0
 19 60  1  6
 20 61  1  0
 20 62  1  0
 21 63  1  0
 21 64  1  0
 22 65  1  6
 23 66  1  0
 25 67  1  0
 25 68  1  0
 25 69  1  0
 26 70  1  0
 26 71  1  0
 26 72  1  0
 28 73  1  0
 28 74  1  0
 28 75  1  0
 29 76  1  0
 29 77  1  0
 30 78  1  0
 30 79  1  0
 32 80  1  0
 32 81  1  0
 32 82  1  0
M  END
>  <meeko>  (12) 
{"is_sidechain": [false], "intermolecular_energy": 2.731, "internal_energy": -0.839}

$$$$
EPH_relaxed_0001_pdb2pqr_Repair_86_r2_0001_out
     RDKit          3D

 82 86  0  0  0  0  0  0  0  0999 V2000
   -3.6950    7.0320   -3.2850 C   0  0  0  0  0  0  0  0  0  0  0  0
   -3.9990    7.2920   -1.8070 C   0  0  2  0  0  0  0  0  0  0  0  0
   -5.5120    7.2700   -1.5120 C   0  0  0  0  0  0  0  0  0  0  0  0
   -6.3670    6.8530   -2.7120 C   0  0  0  0  0  0  0  0  0  0  0  0
   -7.7760    6.5430   -2.3080 C   0  0  2  0  0  0  0  0  0  0  0  0
   -8.7060    6.4560   -3.3960 O   0  0  0  0  0  0  0  0  0  0  0  0
   -8.9250    7.5230   -2.4590 C   0  0  0  0  0  0  0  0  0  0  0  0
   -8.7140    8.8900   -3.0330 C   0  0  0  0  0  0  0  0  0  0  0  0
  -10.1410    7.3370   -1.6070 C   0  0  0  0  0  0  0  0  0  0  0  0
   -3.4040    8.6290   -1.3810 C   0  0  1  0  0  0  0  0  0  0  0  0
   -3.9970    9.1480   -0.0440 C   0  0  0  0  0  0  0  0  0  0  0  0
   -2.8500    9.8810    0.6990 C   0  0  0  0  0  0  0  0  0  0  0  0
   -1.7410   10.0500   -0.3660 C   0  0  1  0  0  0  0  0  0  0  0  0
   -2.1710   11.2990   -1.1980 C   0  0  0  0  0  0  0  0  0  0  0  0
   -0.2810   10.1900    0.1740 C   0  0  2  0  0  0  0  0  0  0  0  0
   -0.0260   11.4270    1.0530 C   0  0  0  0  0  0  0  0  0  0  0  0
    0.4260   12.6470    0.3220 C   0  0  0  0  0  0  0  0  0  0  0  0
    0.8940   12.6750   -0.9400 C   0  0  0  0  0  0  0  0  0  0  0  0
    1.0960   11.3770   -1.7340 C   0  0  1  0  0  0  0  0  0  0  0  0
    2.4840   11.4040   -2.4250 C   0  0  0  0  0  0  0  0  0  0  0  0
    2.6870   12.6500   -3.2820 C   0  0  0  0  0  0  0  0  0  0  0  0
    2.5350   13.9180   -2.4460 C   0  0  2  0  0  0  0  0  0  0  0  0
    3.6110   13.9800   -1.5050 O   0  0  0  0  0  0  0  0  0  0  0  0
    1.1770   13.9970   -1.6940 C   0  0  0  0  0  0  0  0  0  0  0  0
    0.0330   14.2330   -2.7100 C   0  0  0  0  0  0  0  0  0  0  0  0
    1.2110   15.2510   -0.7790 C   0  0  0  0  0  0  0  0  0  0  0  0
    0.8380   10.0280   -0.9340 C   0  0  1  0  0  0  0  0  0  0  0  0
    2.1390    9.5930   -0.1920 C   0  0  0  0  0  0  0  0  0  0  0  0
    0.5050    8.8790   -1.9570 C   0  0  0  0  0  0  0  0  0  0  0  0
   -0.9730    8.7150   -2.3600 C   0  0  0  0  0  0  0  0  0  0  0  0
   -1.8770    8.6800   -1.1240 C   0  0  2  0  0  0  0  0  0  0  0  0
   -1.4840    7.4210   -0.2790 C   0  0  0  0  0  0  0  0  0  0  0  0
   -2.8614    6.3191   -3.3680 H   0  0  0  0  0  0  0  0  0  0  0  0
   -4.5864    6.6125   -3.7744 H   0  0  0  0  0  0  0  0  0  0  0  0
   -3.4188    7.9776   -3.7744 H   0  0  0  0  0  0  0  0  0  0  0  0
   -3.5385    6.4787   -1.2269 H   0  0  0  0  0  0  0  0  0  0  0  0
   -5.6956    6.5607   -0.6915 H   0  0  0  0  0  0  0  0  0  0  0  0
   -5.8037    8.2980   -1.2511 H   0  0  0  0  0  0  0  0  0  0  0  0
   -6.3785    7.6741   -3.4439 H   0  0  0  0  0  0  0  0  0  0  0  0
   -5.9271    5.9433   -3.1467 H   0  0  0  0  0  0  0  0  0  0  0  0
   -7.4242    5.9441   -1.4550 H   0  0  0  0  0  0  0  0  0  0  0  0
   -8.6017    9.6176   -2.2157 H   0  0  0  0  0  0  0  0  0  0  0  0
   -7.8050    8.8913   -3.6525 H   0  0  0  0  0  0  0  0  0  0  0  0
   -9.5803    9.1653   -3.6525 H   0  0  0  0  0  0  0  0  0  0  0  0
   -9.8553    7.3807   -0.5457 H   0  0  0  0  0  0  0  0  0  0  0  0
  -10.8666    8.1346   -1.8245 H   0  0  0  0  0  0  0  0  0  0  0  0
  -10.5950    6.3590   -1.8245 H   0  0  0  0  0  0  0  0  0  0  0  0
   -3.6561    9.2321   -2.2657 H   0  0  0  0  0  0  0  0  0  0  0  0
   -4.8257    9.8438   -0.2419 H   0  0  0  0  0  0  0  0  0  0  0  0
   -4.3932    8.3190    0.5608 H   0  0  0  0  0  0  0  0  0  0  0  0
   -3.1888   10.8611    1.0658 H   0  0  0  0  0  0  0  0  0  0  0  0
   -2.5005    9.3235    1.5805 H   0  0  0  0  0  0  0  0  0  0  0  0
   -2.4519   12.1150   -0.5159 H   0  0  0  0  0  0  0  0  0  0  0  0
   -1.3328   11.6234   -1.8322 H   0  0  0  0  0  0  0  0  0  0  0  0
   -3.0313   11.0387   -1.8322 H   0  0  0  0  0  0  0  0  0  0  0  0
   -0.1938    9.3232    0.8456 H   0  0  0  0  0  0  0  0  0  0  0  0
   -0.9626   11.6715    1.5755 H   0  0  0  0  0  0  0  0  0  0  0  0
    0.7980   11.1549    1.7291 H   0  0  0  0  0  0  0  0  0  0  0  0
    0.3722   13.6049    0.8601 H   0  0  0  0  0  0  0  0  0  0  0  0
    0.3012   11.3581   -2.4942 H   0  0  0  0  0  0  0  0  0  0  0  0
    3.2642   11.3781   -1.6500 H   0  0  0  0  0  0  0  0  0  0  0  0
    2.5435   10.5289   -3.0889 H   0  0  0  0  0  0  0  0  0  0  0  0
    3.6962   12.6258   -3.7190 H   0  0  0  0  0  0  0  0  0  0  0  0
    1.9245   12.6588   -4.0748 H   0  0  0  0  0  0  0  0  0  0  0  0
    2.5607   14.7741   -3.1362 H   0  0  0  0  0  0  0  0  0  0  0  0
    3.5030   14.7960   -0.9870 H   0  0  0  0  0  0  0  0  0  0  0  0
   -0.9045   14.4264   -2.1681 H   0  0  0  0  0  0  0  0  0  0  0  0
    0.2768   15.0998   -3.3419 H   0  0  0  0  0  0  0  0  0  0  0  0
   -0.0861   13.3405   -3.3419 H   0  0  0  0  0  0  0  0  0  0  0  0
    1.2025   14.9362    0.2750 H   0  0  0  0  0  0  0  0  0  0  0  0
    2.1251   15.8283   -0.9819 H   0  0  0  0  0  0  0  0  0  0  0  0
    0.3295   15.8769   -0.9819 H   0  0  0  0  0  0  0  0  0  0  0  0
    1.9769    9.6472    0.8946 H   0  0  0  0  0  0  0  0  0  0  0  0
    2.3940    8.5607   -0.4737 H   0  0  0  0  0  0  0  0  0  0  0  0
    2.9636   10.2643   -0.4737 H   0  0  0  0  0  0  0  0  0  0  0  0
    1.0805    9.0728   -2.8742 H   0  0  0  0  0  0  0  0  0  0  0  0
    0.7670    7.9457   -1.4371 H   0  0  0  0  0  0  0  0  0  0  0  0
   -1.2682    9.5611   -2.9980 H   0  0  0  0  0  0  0  0  0  0  0  0
   -1.0852    7.7655   -2.9039 H   0  0  0  0  0  0  0  0  0  0  0  0
   -1.5587    7.6603    0.7920 H   0  0  0  0  0  0  0  0  0  0  0  0
   -2.1660    6.5916   -0.5178 H   0  0  0  0  0  0  0  0  0  0  0  0
   -0.4513    7.1269   -0.5178 H   0  0  0  0  0  0  0  0  0  0  0  0
  1  2  1  0
  2  3  1  0
  3  4  1  0
  4  5  1  0
  5  6  1  0
  6  7  1  0
  7  8  1  0
  7  9  1  0
  2 10  1  0
 10 11  1  0
 11 12  1  0
 12 13  1  0
 13 14  1  6
 13 15  1  0
 15 16  1  0
 16 17  1  0
 17 18  2  0
 18 19  1  0
 19 20  1  0
 20 21  1  0
 21 22  1  0
 22 23  1  0
 22 24  1  0
 24 25  1  0
 24 26  1  0
 19 27  1  0
 27 28  1  1
 27 29  1  0
 29 30  1  0
 30 31  1  0
 31 32  1  1
  7  5  1  0
 31 10  1  0
 31 13  1  0
 27 15  1  0
 24 18  1  0
  1 33  1  0
  1 34  1  0
  1 35  1  0
  2 36  1  1
  3 37  1  0
  3 38  1  0
  4 39  1  0
  4 40  1  0
  5 41  1  1
  8 42  1  0
  8 43  1  0
  8 44  1  0
  9 45  1  0
  9 46  1  0
  9 47  1  0
 10 48  1  6
 11 49  1  0
 11 50  1  0
 12 51  1  0
 12 52  1  0
 14 53  1  0
 14 54  1  0
 14 55  1  0
 15 56  1  1
 16 57  1  0
 16 58  1  0
 17 59  1  0
 19 60  1  6
 20 61  1  0
 20 62  1  0
 21 63  1  0
 21 64  1  0
 22 65  1  6
 23 66  1  0
 25 67  1  0
 25 68  1  0
 25 69  1  0
 26 70  1  0
 26 71  1  0
 26 72  1  0
 28 73  1  0
 28 74  1  0
 28 75  1  0
 29 76  1  0
 29 77  1  0
 30 78  1  0
 30 79  1  0
 32 80  1  0
 32 81  1  0
 32 82  1  0
M  END
>  <meeko>  (13) 
{"is_sidechain": [false], "intermolecular_energy": 2.731, "internal_energy": -0.839}

$$$$
EPH_relaxed_0001_pdb2pqr_Repair_86_r2_0001_out
     RDKit          3D

 82 86  0  0  0  0  0  0  0  0999 V2000
    3.4730   18.5330   -2.3240 C   0  0  0  0  0  0  0  0  0  0  0  0
    2.2940   17.6330   -2.7040 C   0  0  2  0  0  0  0  0  0  0  0  0
    0.9360   18.2910   -2.3890 C   0  0  0  0  0  0  0  0  0  0  0  0
    1.0480   19.7530   -1.9490 C   0  0  0  0  0  0  0  0  0  0  0  0
    0.9750   19.8910   -0.4580 C   0  0  2  0  0  0  0  0  0  0  0  0
    0.8280   18.6540    0.2510 O   0  0  0  0  0  0  0  0  0  0  0  0
   -0.2690   19.5760    0.3510 C   0  0  0  0  0  0  0  0  0  0  0  0
   -1.5270   19.0980   -0.3040 C   0  0  0  0  0  0  0  0  0  0  0  0
   -0.4160   20.1930    1.7070 C   0  0  0  0  0  0  0  0  0  0  0  0
    2.4060   16.2960   -1.9800 C   0  0  1  0  0  0  0  0  0  0  0  0
    2.9210   16.4470   -0.5240 C   0  0  0  0  0  0  0  0  0  0  0  0
    2.2010   15.3640    0.3200 C   0  0  0  0  0  0  0  0  0  0  0  0
    1.5560   14.4210   -0.7230 C   0  0  1  0  0  0  0  0  0  0  0  0
    2.7120   13.4770   -1.1790 C   0  0  0  0  0  0  0  0  0  0  0  0
    0.3060   13.6140   -0.2450 C   0  0  2  0  0  0  0  0  0  0  0  0
    0.5670   12.6300    0.9100 C   0  0  0  0  0  0  0  0  0  0  0  0
    0.9510   11.2490    0.4960 C   0  0  0  0  0  0  0  0  0  0  0  0
    0.8070   10.7340   -0.7400 C   0  0  0  0  0  0  0  0  0  0  0  0
    0.1170   11.5350   -1.8510 C   0  0  1  0  0  0  0  0  0  0  0  0
   -0.9040   10.6270   -2.5860 C   0  0  0  0  0  0  0  0  0  0  0  0
   -0.2740    9.3360   -3.1020 C   0  0  0  0  0  0  0  0  0  0  0  0
    0.3500    8.5400   -1.9590 C   0  0  2  0  0  0  0  0  0  0  0  0
   -0.6920    8.0810   -1.0930 O   0  0  0  0  0  0  0  0  0  0  0  0
    1.3890    9.3560   -1.1400 C   0  0  0  0  0  0  0  0  0  0  0  0
    2.6570    9.5940   -1.9970 C   0  0  0  0  0  0  0  0  0  0  0  0
    1.8370    8.4850    0.0650 C   0  0  0  0  0  0  0  0  0  0  0  0
   -0.5090   12.9290   -1.4150 C   0  0  1  0  0  0  0  0  0  0  0  0
   -1.9600   12.7170   -0.8830 C   0  0  0  0  0  0  0  0  0  0  0  0
   -0.6320   13.8560   -2.6810 C   0  0  0  0  0  0  0  0  0  0  0  0
    0.5950   14.7190   -3.0330 C   0  0  0  0  0  0  0  0  0  0  0  0
    1.1060   15.4730   -1.8010 C   0  0  2  0  0  0  0  0  0  0  0  0
   -0.0280   16.4470   -1.3330 C   0  0  0  0  0  0  0  0  0  0  0  0
    3.5507   18.5923   -1.2284 H   0  0  0  0  0  0  0  0  0  0  0  0
    4.4026   18.1127   -2.7353 H   0  0  0  0  0  0  0  0  0  0  0  0
    3.3127   19.5405   -2.7353 H   0  0  0  0  0  0  0  0  0  0  0  0
    2.3379   17.4716   -3.7912 H   0  0  0  0  0  0  0  0  0  0  0  0
    0.3109   18.2473   -3.2931 H   0  0  0  0  0  0  0  0  0  0  0  0
    0.4967   17.7348   -1.5478 H   0  0  0  0  0  0  0  0  0  0  0  0
    2.0097   20.1574   -2.2977 H   0  0  0  0  0  0  0  0  0  0  0  0
    0.2049   20.3080   -2.3862 H   0  0  0  0  0  0  0  0  0  0  0  0
    1.6357   20.7701   -0.4832 H   0  0  0  0  0  0  0  0  0  0  0  0
   -2.2595   18.8197    0.4680 H   0  0  0  0  0  0  0  0  0  0  0  0
   -1.9421   19.9011   -0.9307 H   0  0  0  0  0  0  0  0  0  0  0  0
   -1.3040   18.2219   -0.9307 H   0  0  0  0  0  0  0  0  0  0  0  0
   -0.2343   19.4303    2.4785 H   0  0  0  0  0  0  0  0  0  0  0  0
    0.3128   21.0092    1.8194 H   0  0  0  0  0  0  0  0  0  0  0  0
   -1.4346   20.5929    1.8194 H   0  0  0  0  0  0  0  0  0  0  0  0
    3.0915   15.7732   -2.6633 H   0  0  0  0  0  0  0  0  0  0  0  0
    4.0095   16.2925   -0.4894 H   0  0  0  0  0  0  0  0  0  0  0  0
    2.7130   17.4543   -0.1341 H   0  0  0  0  0  0  0  0  0  0  0  0
    2.9215   14.8165    0.9453 H   0  0  0  0  0  0  0  0  0  0  0  0
    1.4585   15.7960    1.0071 H   0  0  0  0  0  0  0  0  0  0  0  0
    3.2183   13.0635   -0.2943 H   0  0  0  0  0  0  0  0  0  0  0  0
    2.2982   12.6554   -1.7821 H   0  0  0  0  0  0  0  0  0  0  0  0
    3.4343   14.0467   -1.7821 H   0  0  0  0  0  0  0  0  0  0  0  0
   -0.3377   14.4017    0.1735 H   0  0  0  0  0  0  0  0  0  0  0  0
    1.3807   13.0385    1.5272 H   0  0  0  0  0  0  0  0  0  0  0  0
   -0.3874   12.5322    1.4480 H   0  0  0  0  0  0  0  0  0  0  0  0
    1.3888   10.5962    1.2655 H   0  0  0  0  0  0  0  0  0  0  0  0
    0.9136   11.8397   -2.5457 H   0  0  0  0  0  0  0  0  0  0  0  0
   -1.7137   10.3695   -1.8874 H   0  0  0  0  0  0  0  0  0  0  0  0
   -1.2816   11.1850   -3.4555 H   0  0  0  0  0  0  0  0  0  0  0  0
   -1.0503    8.7244   -3.5851 H   0  0  0  0  0  0  0  0  0  0  0  0
    0.5158    9.5939   -3.8230 H   0  0  0  0  0  0  0  0  0  0  0  0
    0.8956    7.6955   -2.4052 H   0  0  0  0  0  0  0  0  0  0  0  0
   -0.2870    7.5000   -0.4280 H   0  0  0  0  0  0  0  0  0  0  0  0
    3.5212    9.7562   -1.3360 H   0  0  0  0  0  0  0  0  0  0  0  0
    2.8409    8.7147   -2.6318 H   0  0  0  0  0  0  0  0  0  0  0  0
    2.5095   10.4801   -2.6318 H   0  0  0  0  0  0  0  0  0  0  0  0
    1.5747    8.9950    1.0037 H   0  0  0  0  0  0  0  0  0  0  0  0
    1.3281    7.5107    0.0225 H   0  0  0  0  0  0  0  0  0  0  0  0
    2.9255    8.3323    0.0225 H   0  0  0  0  0  0  0  0  0  0  0  0
   -1.9511   12.7183    0.2170 H   0  0  0  0  0  0  0  0  0  0  0  0
   -2.6059   13.5303   -1.2454 H   0  0  0  0  0  0  0  0  0  0  0  0
   -2.3462   11.7529   -1.2454 H   0  0  0  0  0  0  0  0  0  0  0  0
   -0.8442   13.2108   -3.5463 H   0  0  0  0  0  0  0  0  0  0  0  0
   -1.4278   14.5745   -2.4350 H   0  0  0  0  0  0  0  0  0  0  0  0
    1.3955   14.0680   -3.4143 H   0  0  0  0  0  0  0  0  0  0  0  0
    0.3000   15.4536   -3.7967 H   0  0  0  0  0  0  0  0  0  0  0  0
   -0.0584   16.4731   -0.2337 H   0  0  0  0  0  0  0  0  0  0  0  0
    0.1742   17.4573   -1.7183 H   0  0  0  0  0  0  0  0  0  0  0  0
   -0.9962   16.0946   -1.7183 H   0  0  0  0  0  0  0  0  0  0  0  0
  1  2  1  0
  2  3  1  0
  3  4  1  0
  4  5  1  0
  5  6  1  0
  6  7  1  0
  7  8  1  0
  7  9  1  0
  2 10  1  0
 10 11  1  0
 11 12  1  0
 12 13  1  0
 13 14  1  6
 13 15  1  0
 15 16  1  0
 16 17  1  0
 17 18  2  0
 18 19  1  0
 19 20  1  0
 20 21  1  0
 21 22  1  0
 22 23  1  0
 22 24  1  0
 24 25  1  0
 24 26  1  0
 19 27  1  0
 27 28  1  1
 27 29  1  0
 29 30  1  0
 30 31  1  0
 31 32  1  1
  7  5  1  0
 31 10  1  0
 31 13  1  0
 27 15  1  0
 24 18  1  0
  1 33  1  0
  1 34  1  0
  1 35  1  0
  2 36  1  6
  3 37  1  0
  3 38  1  0
  4 39  1  0
  4 40  1  0
  5 41  1  1
  8 42  1  0
  8 43  1  0
  8 44  1  0
  9 45  1  0
  9 46  1  0
  9 47  1  0
 10 48  1  6
 11 49  1  0
 11 50  1  0
 12 51  1  0
 12 52  1  0
 14 53  1  0
 14 54  1  0
 14 55  1  0
 15 56  1  1
 16 57  1  0
 16 58  1  0
 17 59  1  0
 19 60  1  6
 20 61  1  0
 20 62  1  0
 21 63  1  0
 21 64  1  0
 22 65  1  6
 23 66  1  0
 25 67  1  0
 25 68  1  0
 25 69  1  0
 26 70  1  0
 26 71  1  0
 26 72  1  0
 28 73  1  0
 28 74  1  0
 28 75  1  0
 29 76  1  0
 29 77  1  0
 30 78  1  0
 30 79  1  0
 32 80  1  0
 32 81  1  0
 32 82  1  0
M  END
>  <meeko>  (14) 
{"is_sidechain": [false], "intermolecular_energy": 2.731, "internal_energy": -0.839}

$$$$
EPH_relaxed_0001_pdb2pqr_Repair_86_r2_0001_out
     RDKit          3D

 82 86  0  0  0  0  0  0  0  0999 V2000
   -2.2190    7.8410   -2.0880 C   0  0  0  0  0  0  0  0  0  0  0  0
   -2.1650    8.4680   -0.6920 C   0  0  2  0  0  0  0  0  0  0  0  0
   -3.5400    8.4530    0.0050 C   0  0  0  0  0  0  0  0  0  0  0  0
   -4.7120    8.7350   -0.9390 C   0  0  0  0  0  0  0  0  0  0  0  0
   -5.3650    7.4690   -1.4060 C   0  0  2  0  0  0  0  0  0  0  0  0
   -5.3720    7.2880   -2.8280 O   0  0  0  0  0  0  0  0  0  0  0  0
   -6.6570    7.4390   -2.2020 C   0  0  0  0  0  0  0  0  0  0  0  0
   -7.3720    8.6990   -2.5760 C   0  0  0  0  0  0  0  0  0  0  0  0
   -7.4730    6.1840   -2.1920 C   0  0  0  0  0  0  0  0  0  0  0  0
   -1.6430    9.8970   -0.7840 C   0  0  1  0  0  0  0  0  0  0  0  0
   -1.2030   10.4620    0.5920 C   0  0  0  0  0  0  0  0  0  0  0  0
    0.0150   11.3840    0.3290 C   0  0  0  0  0  0  0  0  0  0  0  0
    0.0290   11.5820   -1.2050 C   0  0  1  0  0  0  0  0  0  0  0  0
   -1.0320   12.6950   -1.4760 C   0  0  0  0  0  0  0  0  0  0  0  0
    1.4120   11.9360   -1.8430 C   0  0  2  0  0  0  0  0  0  0  0  0
    2.0260   13.2670   -1.3750 C   0  0  0  0  0  0  0  0  0  0  0  0
    1.6590   14.4610   -2.1930 C   0  0  0  0  0  0  0  0  0  0  0  0
    1.1050   14.4280   -3.4200 C   0  0  0  0  0  0  0  0  0  0  0  0
    0.8820   13.0960   -4.1480 C   0  0  1  0  0  0  0  0  0  0  0  0
    1.3730   13.2190   -5.6140 C   0  0  0  0  0  0  0  0  0  0  0  0
    0.7400   14.3980   -6.3470 C   0  0  0  0  0  0  0  0  0  0  0  0
    1.0330   15.7100   -5.6240 C   0  0  2  0  0  0  0  0  0  0  0  0
    2.4360   15.9790   -5.7070 O   0  0  0  0  0  0  0  0  0  0  0  0
    0.5900   15.7020   -4.1340 C   0  0  0  0  0  0  0  0  0  0  0  0
   -0.9560   15.7140   -4.0510 C   0  0  0  0  0  0  0  0  0  0  0  0
    1.0700   17.0280   -3.4860 C   0  0  0  0  0  0  0  0  0  0  0  0
    1.4510   11.8040   -3.4190 C   0  0  1  0  0  0  0  0  0  0  0  0
    2.9450   11.5870   -3.8110 C   0  0  0  0  0  0  0  0  0  0  0  0
    0.6700   10.5370   -3.9330 C   0  0  0  0  0  0  0  0  0  0  0  0
   -0.6260   10.1700   -3.1860 C   0  0  0  0  0  0  0  0  0  0  0  0
   -0.3970   10.1430   -1.6720 C   0  0  2  0  0  0  0  0  0  0  0  0
    0.6490    9.0180   -1.3670 C   0  0  0  0  0  0  0  0  0  0  0  0
   -2.3131    6.7489   -1.9960 H   0  0  0  0  0  0  0  0  0  0  0  0
   -3.0862    8.2389   -2.6354 H   0  0  0  0  0  0  0  0  0  0  0  0
   -1.2965    8.0848   -2.6354 H   0  0  0  0  0  0  0  0  0  0  0  0
   -1.4797    7.8604   -0.0827 H   0  0  0  0  0  0  0  0  0  0  0  0
   -3.6892    7.4614    0.4572 H   0  0  0  0  0  0  0  0  0  0  0  0
   -3.5295    9.2587    0.7538 H   0  0  0  0  0  0  0  0  0  0  0  0
   -5.4575    9.3461   -0.4091 H   0  0  0  0  0  0  0  0  0  0  0  0
   -4.3223    9.2651   -1.8205 H   0  0  0  0  0  0  0  0  0  0  0  0
   -5.0471    6.9409   -0.4950 H   0  0  0  0  0  0  0  0  0  0  0  0
   -7.6752    9.2332   -1.6635 H   0  0  0  0  0  0  0  0  0  0  0  0
   -6.7021    9.3383   -3.1697 H   0  0  0  0  0  0  0  0  0  0  0  0
   -8.2644    8.4518   -3.1697 H   0  0  0  0  0  0  0  0  0  0  0  0
   -7.6691    5.8824   -1.1525 H   0  0  0  0  0  0  0  0  0  0  0  0
   -8.4277    6.3633   -2.7081 H   0  0  0  0  0  0  0  0  0  0  0  0
   -6.9218    5.3841   -2.7081 H   0  0  0  0  0  0  0  0  0  0  0  0
   -2.5231   10.3867   -1.2262 H   0  0  0  0  0  0  0  0  0  0  0  0
   -2.0234   11.0383    1.0446 H   0  0  0  0  0  0  0  0  0  0  0  0
   -0.9407    9.6502    1.2864 H   0  0  0  0  0  0  0  0  0  0  0  0
   -0.1091   12.3480    0.8441 H   0  0  0  0  0  0  0  0  0  0  0  0
    0.9547   10.9513    0.7028 H   0  0  0  0  0  0  0  0  0  0  0  0
   -1.4054   13.0867   -0.5183 H   0  0  0  0  0  0  0  0  0  0  0  0
   -0.5690   13.5109   -2.0503 H   0  0  0  0  0  0  0  0  0  0  0  0
   -1.8691   12.2715   -2.0503 H   0  0  0  0  0  0  0  0  0  0  0  0
    2.0657   11.1484   -1.4400 H   0  0  0  0  0  0  0  0  0  0  0  0
    1.6963   13.4487   -0.3414 H   0  0  0  0  0  0  0  0  0  0  0  0
    3.1153   13.1519   -1.4760 H   0  0  0  0  0  0  0  0  0  0  0  0
    1.8579   15.4510   -1.7566 H   0  0  0  0  0  0  0  0  0  0  0  0
   -0.2034   12.9182   -4.1322 H   0  0  0  0  0  0  0  0  0  0  0  0
    2.4650   13.3516   -5.6100 H   0  0  0  0  0  0  0  0  0  0  0  0
    1.0782   12.3005   -6.1426 H   0  0  0  0  0  0  0  0  0  0  0  0
    1.1491   14.4497   -7.3668 H   0  0  0  0  0  0  0  0  0  0  0  0
   -0.3495   14.2491   -6.3770 H   0  0  0  0  0  0  0  0  0  0  0  0
    0.4471   16.4974   -6.1207 H   0  0  0  0  0  0  0  0  0  0  0  0
    2.8820   15.1460   -5.9380 H   0  0  0  0  0  0  0  0  0  0  0  0
   -1.2665   15.7164   -2.9957 H   0  0  0  0  0  0  0  0  0  0  0  0
   -1.3430   16.6152   -4.5491 H   0  0  0  0  0  0  0  0  0  0  0  0
   -1.3569   14.8189   -4.5491 H   0  0  0  0  0  0  0  0  0  0  0  0
    1.0360   16.9341   -2.3905 H   0  0  0  0  0  0  0  0  0  0  0  0
    2.1016   17.2392   -3.8041 H   0  0  0  0  0  0  0  0  0  0  0  0
    0.4126   17.8506   -3.8041 H   0  0  0  0  0  0  0  0  0  0  0  0
    3.5541   11.4985   -2.8993 H   0  0  0  0  0  0  0  0  0  0  0  0
    3.0381   10.6659   -4.4051 H   0  0  0  0  0  0  0  0  0  0  0  0
    3.2963   12.4435   -4.4051 H   0  0  0  0  0  0  0  0  0  0  0  0
    0.4084   10.7122   -4.9870 H   0  0  0  0  0  0  0  0  0  0  0  0
    1.3507    9.6901   -3.7617 H   0  0  0  0  0  0  0  0  0  0  0  0
   -1.3997   10.9162   -3.4197 H   0  0  0  0  0  0  0  0  0  0  0  0
   -0.9463    9.1689   -3.5102 H   0  0  0  0  0  0  0  0  0  0  0  0
    0.7564    8.9025   -0.2784 H   0  0  0  0  0  0  0  0  0  0  0  0
    0.3049    8.0691   -1.8042 H   0  0  0  0  0  0  0  0  0  0  0  0
    1.6204    9.2922   -1.8042 H   0  0  0  0  0  0  0  0  0  0  0  0
  1  2  1  0
  2  3  1  0
  3  4  1  0
  4  5  1  0
  5  6  1  0
  6  7  1  0
  7  8  1  0
  7  9  1  0
  2 10  1  0
 10 11  1  0
 11 12  1  0
 12 13  1  0
 13 14  1  1
 13 15  1  0
 15 16  1  0
 16 17  1  0
 17 18  2  0
 18 19  1  0
 19 20  1  0
 20 21  1  0
 21 22  1  0
 22 23  1  0
 22 24  1  0
 24 25  1  0
 24 26  1  0
 19 27  1  0
 27 28  1  6
 27 29  1  0
 29 30  1  0
 30 31  1  0
 31 32  1  6
  7  5  1  0
 31 10  1  0
 31 13  1  0
 27 15  1  0
 24 18  1  0
  1 33  1  0
  1 34  1  0
  1 35  1  0
  2 36  1  1
  3 37  1  0
  3 38  1  0
  4 39  1  0
  4 40  1  0
  5 41  1  1
  8 42  1  0
  8 43  1  0
  8 44  1  0
  9 45  1  0
  9 46  1  0
  9 47  1  0
 10 48  1  6
 11 49  1  0
 11 50  1  0
 12 51  1  0
 12 52  1  0
 14 53  1  0
 14 54  1  0
 14 55  1  0
 15 56  1  1
 16 57  1  0
 16 58  1  0
 17 59  1  0
 19 60  1  6
 20 61  1  0
 20 62  1  0
 21 63  1  0
 21 64  1  0
 22 65  1  6
 23 66  1  0
 25 67  1  0
 25 68  1  0
 25 69  1  0
 26 70  1  0
 26 71  1  0
 26 72  1  0
 28 73  1  0
 28 74  1  0
 28 75  1  0
 29 76  1  0
 29 77  1  0
 30 78  1  0
 30 79  1  0
 32 80  1  0
 32 81  1  0
 32 82  1  0
M  END
>  <meeko>  (15) 
{"is_sidechain": [false], "intermolecular_energy": 2.731, "internal_energy": -0.839}

$$$$
EPH_relaxed_0001_pdb2pqr_Repair_86_r2_0001_out
     RDKit          3D

 82 86  0  0  0  0  0  0  0  0999 V2000
   -1.5430    9.4150   -0.6690 C   0  0  0  0  0  0  0  0  0  0  0  0
   -0.5310   10.1490   -1.5520 C   0  0  2  0  0  0  0  0  0  0  0  0
    0.6960    9.2750   -1.8800 C   0  0  0  0  0  0  0  0  0  0  0  0
    1.4160    9.6840   -3.1680 C   0  0  0  0  0  0  0  0  0  0  0  0
    2.9030    9.7190   -2.9840 C   0  0  2  0  0  0  0  0  0  0  0  0
    3.4140   10.9580   -2.4730 O   0  0  0  0  0  0  0  0  0  0  0  0
    3.8270   10.6020   -3.8030 C   0  0  0  0  0  0  0  0  0  0  0  0
    3.2970   11.5100   -4.8680 C   0  0  0  0  0  0  0  0  0  0  0  0
    5.2720   10.2250   -3.9050 C   0  0  0  0  0  0  0  0  0  0  0  0
   -0.0850   11.4380   -0.8700 C   0  0  1  0  0  0  0  0  0  0  0  0
    1.0730   11.2100    0.1380 C   0  0  0  0  0  0  0  0  0  0  0  0
    1.9770   12.4670    0.0720 C   0  0  0  0  0  0  0  0  0  0  0  0
    1.1430   13.5070   -0.7130 C   0  0  1  0  0  0  0  0  0  0  0  0
    0.1630   14.1130    0.3400 C   0  0  0  0  0  0  0  0  0  0  0  0
    1.9500   14.6200   -1.4580 C   0  0  2  0  0  0  0  0  0  0  0  0
    2.7800   15.5430   -0.5490 C   0  0  0  0  0  0  0  0  0  0  0  0
    2.0740   16.7690   -0.0700 C   0  0  0  0  0  0  0  0  0  0  0  0
    0.9300   17.2610   -0.5800 C   0  0  0  0  0  0  0  0  0  0  0  0
    0.2780   16.6240   -1.8140 C   0  0  1  0  0  0  0  0  0  0  0  0
   -0.1260   17.7360   -2.8180 C   0  0  0  0  0  0  0  0  0  0  0  0
   -1.0060   18.8070   -2.1810 C   0  0  0  0  0  0  0  0  0  0  0  0
   -0.3010   19.4580   -0.9940 C   0  0  2  0  0  0  0  0  0  0  0  0
    0.8280   20.1940   -1.4750 O   0  0  0  0  0  0  0  0  0  0  0  0
    0.1620   18.4340    0.0800 C   0  0  0  0  0  0  0  0  0  0  0  0
   -1.0730   17.8540    0.8130 C   0  0  0  0  0  0  0  0  0  0  0  0
    0.9820   19.2030    1.1510 C   0  0  0  0  0  0  0  0  0  0  0  0
    1.0980   15.4490   -2.5020 C   0  0  1  0  0  0  0  0  0  0  0  0
    2.1090   16.0380   -3.5330 C   0  0  0  0  0  0  0  0  0  0  0  0
    0.1060   14.5410   -3.3210 C   0  0  0  0  0  0  0  0  0  0  0  0
   -0.5680   13.3850   -2.5580 C   0  0  0  0  0  0  0  0  0  0  0  0
    0.4640   12.5680   -1.7760 C   0  0  2  0  0  0  0  0  0  0  0  0
    1.4510   11.9280   -2.8110 C   0  0  0  0  0  0  0  0  0  0  0  0
   -1.3011    9.5904    0.3896 H   0  0  0  0  0  0  0  0  0  0  0  0
   -2.5549    9.7906   -0.8810 H   0  0  0  0  0  0  0  0  0  0  0  0
   -1.5003    8.3365   -0.8810 H   0  0  0  0  0  0  0  0  0  0  0  0
   -1.0315   10.3848   -2.5028 H   0  0  0  0  0  0  0  0  0  0  0  0
    1.4085    9.3492   -1.0452 H   0  0  0  0  0  0  0  0  0  0  0  0
    0.3293    8.2486   -2.0286 H   0  0  0  0  0  0  0  0  0  0  0  0
    1.1715    8.9594   -3.9587 H   0  0  0  0  0  0  0  0  0  0  0  0
    1.0803   10.6949   -3.4426 H   0  0  0  0  0  0  0  0  0  0  0  0
    2.9236    8.6438   -2.7526 H   0  0  0  0  0  0  0  0  0  0  0  0
    2.7951   12.3699   -4.4003 H   0  0  0  0  0  0  0  0  0  0  0  0
    4.1288   11.8665   -5.4932 H   0  0  0  0  0  0  0  0  0  0  0  0
    2.5775   10.9610   -5.4932 H   0  0  0  0  0  0  0  0  0  0  0  0
    5.6943   10.1148   -2.8953 H   0  0  0  0  0  0  0  0  0  0  0  0
    5.3650    9.2725   -4.4473 H   0  0  0  0  0  0  0  0  0  0  0  0
    5.8185   11.0106   -4.4473 H   0  0  0  0  0  0  0  0  0  0  0  0
   -1.0389   11.7480   -0.4183 H   0  0  0  0  0  0  0  0  0  0  0  0
    0.6714   11.0852    1.1544 H   0  0  0  0  0  0  0  0  0  0  0  0
    1.6408   10.3015   -0.1116 H   0  0  0  0  0  0  0  0  0  0  0  0
    2.2045   12.8352    1.0833 H   0  0  0  0  0  0  0  0  0  0  0  0
    2.9447   12.2600   -0.4084 H   0  0  0  0  0  0  0  0  0  0  0  0
    0.5278   13.8874    1.3529 H   0  0  0  0  0  0  0  0  0  0  0  0
    0.1076   15.2032    0.2046 H   0  0  0  0  0  0  0  0  0  0  0  0
   -0.8371   13.6754    0.2046 H   0  0  0  0  0  0  0  0  0  0  0  0
    2.6808   14.0353   -2.0360 H   0  0  0  0  0  0  0  0  0  0  0  0
    3.0898   14.9628    0.3327 H   0  0  0  0  0  0  0  0  0  0  0  0
    3.6223   15.8965   -1.1618 H   0  0  0  0  0  0  0  0  0  0  0  0
    2.5272   17.3156    0.7701 H   0  0  0  0  0  0  0  0  0  0  0  0
   -0.6211   16.1053   -1.4500 H   0  0  0  0  0  0  0  0  0  0  0  0
    0.7876   18.2130   -3.2025 H   0  0  0  0  0  0  0  0  0  0  0  0
   -0.7058   17.2634   -3.6245 H   0  0  0  0  0  0  0  0  0  0  0  0
   -1.2342   19.5784   -2.9313 H   0  0  0  0  0  0  0  0  0  0  0  0
   -1.9316   18.3330   -1.8225 H   0  0  0  0  0  0  0  0  0  0  0  0
   -1.0275   20.1217   -0.5024 H   0  0  0  0  0  0  0  0  0  0  0  0
    1.1820   19.7190   -2.2460 H   0  0  0  0  0  0  0  0  0  0  0  0
   -0.9211   17.9253    1.9001 H   0  0  0  0  0  0  0  0  0  0  0  0
   -1.9693   18.4253    0.5297 H   0  0  0  0  0  0  0  0  0  0  0  0
   -1.2057   16.7994    0.5297 H   0  0  0  0  0  0  0  0  0  0  0  0
    0.6538   18.8952    2.1548 H   0  0  0  0  0  0  0  0  0  0  0  0
    2.0509   18.9741    1.0285 H   0  0  0  0  0  0  0  0  0  0  0  0
    0.8222   20.2844    1.0285 H   0  0  0  0  0  0  0  0  0  0  0  0
    2.9391   16.5216   -2.9973 H   0  0  0  0  0  0  0  0  0  0  0  0
    2.5026   15.2279   -4.1645 H   0  0  0  0  0  0  0  0  0  0  0  0
    1.5984   16.7800   -4.1645 H   0  0  0  0  0  0  0  0  0  0  0  0
   -0.6908   15.1893   -3.7145 H   0  0  0  0  0  0  0  0  0  0  0  0
    0.7268   14.0560   -4.0887 H   0  0  0  0  0  0  0  0  0  0  0  0
   -1.3058   13.7997   -1.8553 H   0  0  0  0  0  0  0  0  0  0  0  0
   -1.0592   12.7235   -3.2868 H   0  0  0  0  0  0  0  0  0  0  0  0
    2.2568   11.4055   -2.2746 H   0  0  0  0  0  0  0  0  0  0  0  0
    0.9059   11.2110   -3.4425 H   0  0  0  0  0  0  0  0  0  0  0  0
    1.8832   12.7182   -3.4425 H   0  0  0  0  0  0  0  0  0  0  0  0
  1  2  1  0
  2  3  1  0
  3  4  1  0
  4  5  1  0
  5  6  1  0
  6  7  1  0
  7  8  1  0
  7  9  1  0
  2 10  1  0
 10 11  1  0
 11 12  1  0
 12 13  1  0
 13 14  1  1
 13 15  1  0
 15 16  1  0
 16 17  1  0
 17 18  2  0
 18 19  1  0
 19 20  1  0
 20 21  1  0
 21 22  1  0
 22 23  1  0
 22 24  1  0
 24 25  1  0
 24 26  1  0
 19 27  1  0
 27 28  1  6
 27 29  1  0
 29 30  1  0
 30 31  1  0
 31 32  1  6
  7  5  1  0
 31 10  1  0
 31 13  1  0
 27 15  1  0
 24 18  1  0
  1 33  1  0
  1 34  1  0
  1 35  1  0
  2 36  1  6
  3 37  1  0
  3 38  1  0
  4 39  1  0
  4 40  1  0
  5 41  1  1
  8 42  1  0
  8 43  1  0
  8 44  1  0
  9 45  1  0
  9 46  1  0
  9 47  1  0
 10 48  1  1
 11 49  1  0
 11 50  1  0
 12 51  1  0
 12 52  1  0
 14 53  1  0
 14 54  1  0
 14 55  1  0
 15 56  1  6
 16 57  1  0
 16 58  1  0
 17 59  1  0
 19 60  1  1
 20 61  1  0
 20 62  1  0
 21 63  1  0
 21 64  1  0
 22 65  1  1
 23 66  1  0
 25 67  1  0
 25 68  1  0
 25 69  1  0
 26 70  1  0
 26 71  1  0
 26 72  1  0
 28 73  1  0
 28 74  1  0
 28 75  1  0
 29 76  1  0
 29 77  1  0
 30 78  1  0
 30 79  1  0
 32 80  1  0
 32 81  1  0
 32 82  1  0
M  END
>  <meeko>  (16) 
{"is_sidechain": [false], "intermolecular_energy": 2.731, "internal_energy": -0.839}

$$$$
EPH_relaxed_0001_pdb2pqr_Repair_86_r2_0001_out
     RDKit          3D

 82 86  0  0  0  0  0  0  0  0999 V2000
    2.8050   18.3410   -3.3270 C   0  0  0  0  0  0  0  0  0  0  0  0
    2.1090   18.1230   -1.9810 C   0  0  2  0  0  0  0  0  0  0  0  0
    2.5620   19.1450   -0.9190 C   0  0  0  0  0  0  0  0  0  0  0  0
    3.7710   18.6870   -0.0990 C   0  0  0  0  0  0  0  0  0  0  0  0
    3.5490   18.8800    1.3700 C   0  0  2  0  0  0  0  0  0  0  0  0
    3.8780   20.1870    1.8580 O   0  0  0  0  0  0  0  0  0  0  0  0
    4.6740   19.1030    2.3630 C   0  0  0  0  0  0  0  0  0  0  0  0
    6.1050   19.1430    1.9260 C   0  0  0  0  0  0  0  0  0  0  0  0
    4.4260   18.7950    3.8070 C   0  0  0  0  0  0  0  0  0  0  0  0
    2.3710   16.7060   -1.4840 C   0  0  1  0  0  0  0  0  0  0  0  0
    3.0150   16.6770   -0.0720 C   0  0  0  0  0  0  0  0  0  0  0  0
    2.4470   15.4300    0.6530 C   0  0  0  0  0  0  0  0  0  0  0  0
    1.7630   14.6070   -0.4630 C   0  0  1  0  0  0  0  0  0  0  0  0
    2.9240   13.8300   -1.1580 C   0  0  0  0  0  0  0  0  0  0  0  0
    0.6160   13.6470   -0.0090 C   0  0  2  0  0  0  0  0  0  0  0  0
    1.0460   12.5250    0.9520 C   0  0  0  0  0  0  0  0  0  0  0  0
    1.4710   11.2530    0.2980 C   0  0  0  0  0  0  0  0  0  0  0  0
    1.2400   10.9170   -0.9850 C   0  0  0  0  0  0  0  0  0  0  0  0
    0.3990   11.8200   -1.8960 C   0  0  1  0  0  0  0  0  0  0  0  0
   -0.6320   10.9580   -2.6710 C   0  0  0  0  0  0  0  0  0  0  0  0
    0.0220    9.8090   -3.4320 C   0  0  0  0  0  0  0  0  0  0  0  0
    0.8020    8.9010   -2.4850 C   0  0  2  0  0  0  0  0  0  0  0  0
   -0.1220    8.2420   -1.6130 O   0  0  0  0  0  0  0  0  0  0  0  0
    1.8640    9.6610   -1.6420 C   0  0  0  0  0  0  0  0  0  0  0  0
    3.0260   10.1180   -2.5580 C   0  0  0  0  0  0  0  0  0  0  0  0
    2.4780    8.6570   -0.6290 C   0  0  0  0  0  0  0  0  0  0  0  0
   -0.2660   13.0830   -1.1970 C   0  0  1  0  0  0  0  0  0  0  0  0
   -1.6430   12.6870   -0.5800 C   0  0  0  0  0  0  0  0  0  0  0  0
   -0.5670   14.1770   -2.2890 C   0  0  0  0  0  0  0  0  0  0  0  0
    0.5660   15.1710   -2.6080 C   0  0  0  0  0  0  0  0  0  0  0  0
    1.1460   15.7700   -1.3230 C   0  0  2  0  0  0  0  0  0  0  0  0
    0.0060   16.5770   -0.6140 C   0  0  0  0  0  0  0  0  0  0  0  0
    3.8418   18.6658   -3.1553 H   0  0  0  0  0  0  0  0  0  0  0  0
    2.8051   17.3999   -3.8964 H   0  0  0  0  0  0  0  0  0  0  0  0
    2.2682   19.1140   -3.8964 H   0  0  0  0  0  0  0  0  0  0  0  0
    1.0303   18.2688   -2.1399 H   0  0  0  0  0  0  0  0  0  0  0  0
    2.8244   20.0832   -1.4298 H   0  0  0  0  0  0  0  0  0  0  0  0
    1.7255   19.2692   -0.2156 H   0  0  0  0  0  0  0  0  0  0  0  0
    3.9512   17.6197   -0.2952 H   0  0  0  0  0  0  0  0  0  0  0  0
    4.6381   19.2944   -0.3976 H   0  0  0  0  0  0  0  0  0  0  0  0
    2.7030   18.1771    1.3591 H   0  0  0  0  0  0  0  0  0  0  0  0
    6.7582   19.1613    2.8109 H   0  0  0  0  0  0  0  0  0  0  0  0
    6.3293   18.2508    1.3230 H   0  0  0  0  0  0  0  0  0  0  0  0
    6.2791   20.0464    1.3230 H   0  0  0  0  0  0  0  0  0  0  0  0
    4.9926   19.4987    4.4346 H   0  0  0  0  0  0  0  0  0  0  0  0
    3.3520   18.8933    4.0237 H   0  0  0  0  0  0  0  0  0  0  0  0
    4.7512   17.7667    4.0237 H   0  0  0  0  0  0  0  0  0  0  0  0
    3.0177   16.3431   -2.2964 H   0  0  0  0  0  0  0  0  0  0  0  0
    4.1091   16.6006   -0.1562 H   0  0  0  0  0  0  0  0  0  0  0  0
    2.7855   17.5969    0.4858 H   0  0  0  0  0  0  0  0  0  0  0  0
    3.2565   14.8511    1.1216 H   0  0  0  0  0  0  0  0  0  0  0  0
    1.7494   15.6987    1.4600 H   0  0  0  0  0  0  0  0  0  0  0  0
    3.5807   13.3905   -0.3928 H   0  0  0  0  0  0  0  0  0  0  0  0
    2.5053   13.0295   -1.7856 H   0  0  0  0  0  0  0  0  0  0  0  0
    3.5044   14.5223   -1.7856 H   0  0  0  0  0  0  0  0  0  0  0  0
   -0.0301   14.3143    0.5802 H   0  0  0  0  0  0  0  0  0  0  0  0
    1.8894   12.8966    1.5525 H   0  0  0  0  0  0  0  0  0  0  0  0
    0.1554   12.2775    1.5483 H   0  0  0  0  0  0  0  0  0  0  0  0
    2.0199   10.5280    0.9170 H   0  0  0  0  0  0  0  0  0  0  0  0
    1.1053   12.2819   -2.6016 H   0  0  0  0  0  0  0  0  0  0  0  0
   -1.3533   10.5404   -1.9531 H   0  0  0  0  0  0  0  0  0  0  0  0
   -1.1255   11.6089   -3.4077 H   0  0  0  0  0  0  0  0  0  0  0  0
   -0.7590    9.2193   -3.9343 H   0  0  0  0  0  0  0  0  0  0  0  0
    0.7209   10.2297   -4.1699 H   0  0  0  0  0  0  0  0  0  0  0  0
    1.3525    8.1761   -3.1026 H   0  0  0  0  0  0  0  0  0  0  0  0
   -0.9010    8.8160   -1.5220 H   0  0  0  0  0  0  0  0  0  0  0  0
    3.8720   10.4507   -1.9387 H   0  0  0  0  0  0  0  0  0  0  0  0
    3.3444    9.2781   -3.1930 H   0  0  0  0  0  0  0  0  0  0  0  0
    2.6870   10.9498   -3.1930 H   0  0  0  0  0  0  0  0  0  0  0  0
    2.2700    8.9971    0.3962 H   0  0  0  0  0  0  0  0  0  0  0  0
    2.0333    7.6627   -0.7828 H   0  0  0  0  0  0  0  0  0  0  0  0
    3.5657    8.5999   -0.7828 H   0  0  0  0  0  0  0  0  0  0  0  0
   -1.5724   12.7073    0.5175 H   0  0  0  0  0  0  0  0  0  0  0  0
   -2.4120   13.4004   -0.9112 H   0  0  0  0  0  0  0  0  0  0  0  0
   -1.9155   11.6741   -0.9112 H   0  0  0  0  0  0  0  0  0  0  0  0
   -0.8232   13.6539   -3.2222 H   0  0  0  0  0  0  0  0  0  0  0  0
   -1.3768   14.7899   -1.8665 H   0  0  0  0  0  0  0  0  0  0  0  0
    1.3641   14.6448   -3.1522 H   0  0  0  0  0  0  0  0  0  0  0  0
    0.1555   15.9865   -3.2216 H   0  0  0  0  0  0  0  0  0  0  0  0
    0.1223   16.4947    0.4767 H   0  0  0  0  0  0  0  0  0  0  0  0
    0.0665   17.6346   -0.9104 H   0  0  0  0  0  0  0  0  0  0  0  0
   -0.9714   16.1685   -0.9104 H   0  0  0  0  0  0  0  0  0  0  0  0
  1  2  1  0
  2  3  1  0
  3  4  1  0
  4  5  1  0
  5  6  1  0
  6  7  1  0
  7  8  1  0
  7  9  1  0
  2 10  1  0
 10 11  1  0
 11 12  1  0
 12 13  1  0
 13 14  1  6
 13 15  1  0
 15 16  1  0
 16 17  1  0
 17 18  2  0
 18 19  1  0
 19 20  1  0
 20 21  1  0
 21 22  1  0
 22 23  1  0
 22 24  1  0
 24 25  1  0
 24 26  1  0
 19 27  1  0
 27 28  1  1
 27 29  1  0
 29 30  1  0
 30 31  1  0
 31 32  1  1
  7  5  1  0
 31 10  1  0
 31 13  1  0
 27 15  1  0
 24 18  1  0
  1 33  1  0
  1 34  1  0
  1 35  1  0
  2 36  1  6
  3 37  1  0
  3 38  1  0
  4 39  1  0
  4 40  1  0
  5 41  1  1
  8 42  1  0
  8 43  1  0
  8 44  1  0
  9 45  1  0
  9 46  1  0
  9 47  1  0
 10 48  1  6
 11 49  1  0
 11 50  1  0
 12 51  1  0
 12 52  1  0
 14 53  1  0
 14 54  1  0
 14 55  1  0
 15 56  1  1
 16 57  1  0
 16 58  1  0
 17 59  1  0
 19 60  1  6
 20 61  1  0
 20 62  1  0
 21 63  1  0
 21 64  1  0
 22 65  1  6
 23 66  1  0
 25 67  1  0
 25 68  1  0
 25 69  1  0
 26 70  1  0
 26 71  1  0
 26 72  1  0
 28 73  1  0
 28 74  1  0
 28 75  1  0
 29 76  1  0
 29 77  1  0
 30 78  1  0
 30 79  1  0
 32 80  1  0
 32 81  1  0
 32 82  1  0
M  END
>  <meeko>  (17) 
{"is_sidechain": [false], "intermolecular_energy": 2.731, "internal_energy": -0.839}

$$$$
EPH_relaxed_0001_pdb2pqr_Repair_86_r2_0001_out
     RDKit          3D

 82 86  0  0  0  0  0  0  0  0999 V2000
    2.0780   10.9480   -5.1750 C   0  0  0  0  0  0  0  0  0  0  0  0
    1.4220   10.7890   -3.8000 C   0  0  2  0  0  0  0  0  0  0  0  0
    0.3030    9.7280   -3.8110 C   0  0  0  0  0  0  0  0  0  0  0  0
    0.3950    8.7250   -2.6580 C   0  0  0  0  0  0  0  0  0  0  0  0
   -0.2690    9.2430   -1.4180 C   0  0  2  0  0  0  0  0  0  0  0  0
   -0.6110    8.2360   -0.4560 O   0  0  0  0  0  0  0  0  0  0  0  0
   -1.7110    8.9420   -1.0530 C   0  0  0  0  0  0  0  0  0  0  0  0
   -2.5770    8.0920   -1.9290 C   0  0  0  0  0  0  0  0  0  0  0  0
   -2.4170    9.8650   -0.1090 C   0  0  0  0  0  0  0  0  0  0  0  0
    0.8660   12.1280   -3.3310 C   0  0  1  0  0  0  0  0  0  0  0  0
   -0.6390   12.0540   -2.9610 C   0  0  0  0  0  0  0  0  0  0  0  0
   -0.8560   13.0240   -1.7710 C   0  0  0  0  0  0  0  0  0  0  0  0
    0.4410   13.8630   -1.7110 C   0  0  1  0  0  0  0  0  0  0  0  0
    0.2590   14.9630   -2.8030 C   0  0  0  0  0  0  0  0  0  0  0  0
    0.7980   14.4840   -0.3210 C   0  0  2  0  0  0  0  0  0  0  0  0
   -0.2250   15.4950    0.2240 C   0  0  0  0  0  0  0  0  0  0  0  0
    0.0180   16.9180   -0.1590 C   0  0  0  0  0  0  0  0  0  0  0  0
    1.1650   17.4050   -0.6680 C   0  0  0  0  0  0  0  0  0  0  0  0
    2.4040   16.5130   -0.8140 C   0  0  1  0  0  0  0  0  0  0  0  0
    3.6500   17.2650   -0.2770 C   0  0  0  0  0  0  0  0  0  0  0  0
    3.8350   18.6320   -0.9290 C   0  0  0  0  0  0  0  0  0  0  0  0
    2.6060   19.5100   -0.7120 C   0  0  2  0  0  0  0  0  0  0  0  0
    2.4980   19.8160    0.6820 O   0  0  0  0  0  0  0  0  0  0  0  0
    1.2870   18.8520   -1.2060 C   0  0  0  0  0  0  0  0  0  0  0  0
    1.2810   18.7970   -2.7540 C   0  0  0  0  0  0  0  0  0  0  0  0
    0.1100   19.7790   -0.8000 C   0  0  0  0  0  0  0  0  0  0  0  0
    2.2750   15.0440   -0.2210 C   0  0  1  0  0  0  0  0  0  0  0  0
    2.6490   15.0470    1.2920 C   0  0  0  0  0  0  0  0  0  0  0  0
    3.3200   14.1080   -0.9350 C   0  0  0  0  0  0  0  0  0  0  0  0
    2.8660   13.4290   -2.2420 C   0  0  0  0  0  0  0  0  0  0  0  0
    1.5010   12.7570   -2.0650 C   0  0  2  0  0  0  0  0  0  0  0  0
    1.6580   11.6310   -0.9880 C   0  0  0  0  0  0  0  0  0  0  0  0
    3.1398   11.2054   -5.0471 H   0  0  0  0  0  0  0  0  0  0  0  0
    1.9942   10.0035   -5.7327 H   0  0  0  0  0  0  0  0  0  0  0  0
    1.5711   11.7493   -5.7327 H   0  0  0  0  0  0  0  0  0  0  0  0
    2.1978   10.4440   -3.1006 H   0  0  0  0  0  0  0  0  0  0  0  0
   -0.6660   10.2445   -3.7456 H   0  0  0  0  0  0  0  0  0  0  0  0
    0.4114    9.1560   -4.7443 H   0  0  0  0  0  0  0  0  0  0  0  0
   -0.0959    7.7882   -2.9604 H   0  0  0  0  0  0  0  0  0  0  0  0
    1.4587    8.5579   -2.4330 H   0  0  0  0  0  0  0  0  0  0  0  0
    0.2949   10.1853   -1.4816 H   0  0  0  0  0  0  0  0  0  0  0  0
   -3.2224    7.4585   -1.3027 H   0  0  0  0  0  0  0  0  0  0  0  0
   -3.2017    8.7373   -2.5641 H   0  0  0  0  0  0  0  0  0  0  0  0
   -1.9434    7.4554   -2.5641 H   0  0  0  0  0  0  0  0  0  0  0  0
   -2.1926    9.5717    0.9271 H   0  0  0  0  0  0  0  0  0  0  0  0
   -2.0752   10.8964   -0.2803 H   0  0  0  0  0  0  0  0  0  0  0  0
   -3.5019    9.8051   -0.2803 H   0  0  0  0  0  0  0  0  0  0  0  0
    1.0966   12.7426   -4.2137 H   0  0  0  0  0  0  0  0  0  0  0  0
   -1.2553   12.3625   -3.8183 H   0  0  0  0  0  0  0  0  0  0  0  0
   -0.9292   11.0277   -2.6916 H   0  0  0  0  0  0  0  0  0  0  0  0
   -1.7283   13.6697   -1.9503 H   0  0  0  0  0  0  0  0  0  0  0  0
   -1.0525   12.4913   -0.8288 H   0  0  0  0  0  0  0  0  0  0  0  0
    0.0978   15.9374   -2.3186 H   0  0  0  0  0  0  0  0  0  0  0  0
    1.1616   15.0101   -3.4300 H   0  0  0  0  0  0  0  0  0  0  0  0
   -0.6106   14.7169   -3.4300 H   0  0  0  0  0  0  0  0  0  0  0  0
    0.7416   13.6126    0.3480 H   0  0  0  0  0  0  0  0  0  0  0  0
   -1.2190   15.2075   -0.1493 H   0  0  0  0  0  0  0  0  0  0  0  0
   -0.1376   15.4556    1.3198 H   0  0  0  0  0  0  0  0  0  0  0  0
   -0.8098   17.6276   -0.0129 H   0  0  0  0  0  0  0  0  0  0  0  0
    2.5176   16.3249   -1.8918 H   0  0  0  0  0  0  0  0  0  0  0  0
    3.5370   17.4044    0.8083 H   0  0  0  0  0  0  0  0  0  0  0  0
    4.5353   16.6581   -0.5174 H   0  0  0  0  0  0  0  0  0  0  0  0
    4.7129   19.1259   -0.4870 H   0  0  0  0  0  0  0  0  0  0  0  0
    3.9781   18.4890   -2.0102 H   0  0  0  0  0  0  0  0  0  0  0  0
    2.7438   20.4230   -1.3099 H   0  0  0  0  0  0  0  0  0  0  0  0
    1.9880   19.1030    1.1010 H   0  0  0  0  0  0  0  0  0  0  0  0
    1.1672   17.7537   -3.0834 H   0  0  0  0  0  0  0  0  0  0  0  0
    0.4429   19.3965   -3.1390 H   0  0  0  0  0  0  0  0  0  0  0  0
    2.2286   19.2017   -3.1390 H   0  0  0  0  0  0  0  0  0  0  0  0
    0.0451   19.8301    0.2969 H   0  0  0  0  0  0  0  0  0  0  0  0
    0.2811   20.7875   -1.2046 H   0  0  0  0  0  0  0  0  0  0  0  0
   -0.8303   19.3763   -1.2046 H   0  0  0  0  0  0  0  0  0  0  0  0
    1.7302   15.0396    1.8968 H   0  0  0  0  0  0  0  0  0  0  0  0
    3.2476   14.1536    1.5235 H   0  0  0  0  0  0  0  0  0  0  0  0
    3.2332   15.9499    1.5235 H   0  0  0  0  0  0  0  0  0  0  0  0
    4.2073   14.7156   -1.1665 H   0  0  0  0  0  0  0  0  0  0  0  0
    3.4972   13.2834   -0.2289 H   0  0  0  0  0  0  0  0  0  0  0  0
    2.7935   14.1876   -3.0353 H   0  0  0  0  0  0  0  0  0  0  0  0
    3.6037   12.6590   -2.5119 H   0  0  0  0  0  0  0  0  0  0  0  0
    1.5963   12.0738    0.0171 H   0  0  0  0  0  0  0  0  0  0  0  0
    0.8545   10.8901   -1.1123 H   0  0  0  0  0  0  0  0  0  0  0  0
    2.6335   11.1382   -1.1123 H   0  0  0  0  0  0  0  0  0  0  0  0
  1  2  1  0
  2  3  1  0
  3  4  1  0
  4  5  1  0
  5  6  1  0
  6  7  1  0
  7  8  1  0
  7  9  1  0
  2 10  1  0
 10 11  1  0
 11 12  1  0
 12 13  1  0
 13 14  1  6
 13 15  1  0
 15 16  1  0
 16 17  1  0
 17 18  2  0
 18 19  1  0
 19 20  1  0
 20 21  1  0
 21 22  1  0
 22 23  1  0
 22 24  1  0
 24 25  1  0
 24 26  1  0
 19 27  1  0
 27 28  1  1
 27 29  1  0
 29 30  1  0
 30 31  1  0
 31 32  1  1
  7  5  1  0
 31 10  1  0
 31 13  1  0
 27 15  1  0
 24 18  1  0
  1 33  1  0
  1 34  1  0
  1 35  1  0
  2 36  1  1
  3 37  1  0
  3 38  1  0
  4 39  1  0
  4 40  1  0
  5 41  1  1
  8 42  1  0
  8 43  1  0
  8 44  1  0
  9 45  1  0
  9 46  1  0
  9 47  1  0
 10 48  1  6
 11 49  1  0
 11 50  1  0
 12 51  1  0
 12 52  1  0
 14 53  1  0
 14 54  1  0
 14 55  1  0
 15 56  1  1
 16 57  1  0
 16 58  1  0
 17 59  1  0
 19 60  1  6
 20 61  1  0
 20 62  1  0
 21 63  1  0
 21 64  1  0
 22 65  1  6
 23 66  1  0
 25 67  1  0
 25 68  1  0
 25 69  1  0
 26 70  1  0
 26 71  1  0
 26 72  1  0
 28 73  1  0
 28 74  1  0
 28 75  1  0
 29 76  1  0
 29 77  1  0
 30 78  1  0
 30 79  1  0
 32 80  1  0
 32 81  1  0
 32 82  1  0
M  END
>  <meeko>  (18) 
{"is_sidechain": [false], "intermolecular_energy": 2.731, "internal_energy": -0.839}

$$$$
EPH_relaxed_0001_pdb2pqr_Repair_86_r2_0001_out
     RDKit          3D

 82 86  0  0  0  0  0  0  0  0999 V2000
    0.9700   14.9590   -2.6790 C   0  0  0  0  0  0  0  0  0  0  0  0
    1.2090   14.2790   -4.0300 C   0  0  2  0  0  0  0  0  0  0  0  0
    0.4820   15.0020   -5.1810 C   0  0  0  0  0  0  0  0  0  0  0  0
    0.9960   14.6180   -6.5710 C   0  0  0  0  0  0  0  0  0  0  0  0
    0.8130   15.7320   -7.5570 C   0  0  2  0  0  0  0  0  0  0  0  0
    0.3820   15.3130   -8.8590 O   0  0  0  0  0  0  0  0  0  0  0  0
    1.6850   15.9140   -8.7850 C   0  0  0  0  0  0  0  0  0  0  0  0
    2.8080   14.9730   -9.0910 C   0  0  0  0  0  0  0  0  0  0  0  0
    1.7610   17.2700   -9.4140 C   0  0  0  0  0  0  0  0  0  0  0  0
    0.7630   12.8230   -3.9650 C   0  0  1  0  0  0  0  0  0  0  0  0
    1.8910   11.8340   -4.3610 C   0  0  0  0  0  0  0  0  0  0  0  0
    1.7070   10.5710   -3.4810 C   0  0  0  0  0  0  0  0  0  0  0  0
    0.3030   10.7330   -2.8540 C   0  0  1  0  0  0  0  0  0  0  0  0
   -0.6890   10.2590   -3.9630 C   0  0  0  0  0  0  0  0  0  0  0  0
    0.0580    9.9850   -1.5030 C   0  0  2  0  0  0  0  0  0  0  0  0
    0.1650    8.4520   -1.5770 C   0  0  0  0  0  0  0  0  0  0  0  0
   -1.1110    7.7380   -1.8800 C   0  0  0  0  0  0  0  0  0  0  0  0
   -2.3440    8.2720   -1.8030 C   0  0  0  0  0  0  0  0  0  0  0  0
   -2.5520    9.7010   -1.2840 C   0  0  1  0  0  0  0  0  0  0  0  0
   -3.7170    9.7140   -0.2590 C   0  0  0  0  0  0  0  0  0  0  0  0
   -4.9980    9.1060   -0.8220 C   0  0  0  0  0  0  0  0  0  0  0  0
   -4.7650    7.6660   -1.2740 C   0  0  2  0  0  0  0  0  0  0  0  0
   -4.4880    6.8610   -0.1250 O   0  0  0  0  0  0  0  0  0  0  0  0
   -3.6060    7.5270   -2.3010 C   0  0  0  0  0  0  0  0  0  0  0  0
   -4.0340    8.1450   -3.6550 C   0  0  0  0  0  0  0  0  0  0  0  0
   -3.3830    6.0130   -2.5670 C   0  0  0  0  0  0  0  0  0  0  0  0
   -1.2530   10.4370   -0.7400 C   0  0  1  0  0  0  0  0  0  0  0  0
   -1.0340   10.0890    0.7640 C   0  0  0  0  0  0  0  0  0  0  0  0
   -1.4780   11.9940   -0.8070 C   0  0  0  0  0  0  0  0  0  0  0  0
   -1.1050   12.6930   -2.1290 C   0  0  0  0  0  0  0  0  0  0  0  0
    0.2970   12.2830   -2.5900 C   0  0  2  0  0  0  0  0  0  0  0  0
    1.3180   12.7660   -1.5040 C   0  0  0  0  0  0  0  0  0  0  0  0
    1.2162   14.2586   -1.8673 H   0  0  0  0  0  0  0  0  0  0  0  0
    1.6084   15.8513   -2.5996 H   0  0  0  0  0  0  0  0  0  0  0  0
   -0.0863   15.2556   -2.5996 H   0  0  0  0  0  0  0  0  0  0  0  0
    2.2878   14.3284   -4.2389 H   0  0  0  0  0  0  0  0  0  0  0  0
   -0.5883   14.7541   -5.1258 H   0  0  0  0  0  0  0  0  0  0  0  0
    0.6706   16.0783   -5.0545 H   0  0  0  0  0  0  0  0  0  0  0  0
    2.0668   14.3763   -6.5009 H   0  0  0  0  0  0  0  0  0  0  0  0
    0.4183   13.7505   -6.9226 H   0  0  0  0  0  0  0  0  0  0  0  0
    0.5134   16.4240   -6.7561 H   0  0  0  0  0  0  0  0  0  0  0  0
    3.2456   14.6063   -8.1508 H   0  0  0  0  0  0  0  0  0  0  0  0
    2.4250   14.1222   -9.6736 H   0  0  0  0  0  0  0  0  0  0  0  0
    3.5787   15.4990   -9.6736 H   0  0  0  0  0  0  0  0  0  0  0  0
    1.8040   18.0373   -8.6270 H   0  0  0  0  0  0  0  0  0  0  0  0
    2.6642   17.3344  -10.0386 H   0  0  0  0  0  0  0  0  0  0  0  0
    0.8707   17.4349  -10.0386 H   0  0  0  0  0  0  0  0  0  0  0  0
   -0.0869   12.8594   -4.6624 H   0  0  0  0  0  0  0  0  0  0  0  0
    1.8067   11.5697   -5.4254 H   0  0  0  0  0  0  0  0  0  0  0  0
    2.8830   12.2831   -4.2052 H   0  0  0  0  0  0  0  0  0  0  0  0
    1.7552    9.6596   -4.0950 H   0  0  0  0  0  0  0  0  0  0  0  0
    2.4951   10.4749   -2.7196 H   0  0  0  0  0  0  0  0  0  0  0  0
   -1.5865    9.8302   -3.4932 H   0  0  0  0  0  0  0  0  0  0  0  0
   -0.9769   11.1169   -4.5885 H   0  0  0  0  0  0  0  0  0  0  0  0
   -0.2024    9.4961   -4.5885 H   0  0  0  0  0  0  0  0  0  0  0  0
    0.9119   10.3147   -0.8930 H   0  0  0  0  0  0  0  0  0  0  0  0
    0.8911    8.1994   -2.3638 H   0  0  0  0  0  0  0  0  0  0  0  0
    0.4694    8.1192   -0.5737 H   0  0  0  0  0  0  0  0  0  0  0  0
   -1.0369    6.6860   -2.1928 H   0  0  0  0  0  0  0  0  0  0  0  0
   -2.8191   10.3080   -2.1616 H   0  0  0  0  0  0  0  0  0  0  0  0
   -3.4132    9.1380    0.6275 H   0  0  0  0  0  0  0  0  0  0  0  0
   -3.9283   10.7636   -0.0067 H   0  0  0  0  0  0  0  0  0  0  0  0
   -5.7748    9.1178   -0.0432 H   0  0  0  0  0  0  0  0  0  0  0  0
   -5.3164    9.7000   -1.6913 H   0  0  0  0  0  0  0  0  0  0  0  0
   -5.6792    7.3283   -1.7841 H   0  0  0  0  0  0  0  0  0  0  0  0
   -4.8040    7.3450    0.6570 H   0  0  0  0  0  0  0  0  0  0  0  0
   -4.6516    9.0367   -3.4722 H   0  0  0  0  0  0  0  0  0  0  0  0
   -3.1389    8.4300   -4.2273 H   0  0  0  0  0  0  0  0  0  0  0  0
   -4.6156    7.4073   -4.2273 H   0  0  0  0  0  0  0  0  0  0  0  0
   -3.3045    5.4799   -1.6080 H   0  0  0  0  0  0  0  0  0  0  0  0
   -4.2319    5.6126   -3.1407 H   0  0  0  0  0  0  0  0  0  0  0  0
   -2.4547    5.8743   -3.1407 H   0  0  0  0  0  0  0  0  0  0  0  0
   -1.5153   10.8538    1.3912 H   0  0  0  0  0  0  0  0  0  0  0  0
   -1.4762    9.1055    0.9809 H   0  0  0  0  0  0  0  0  0  0  0  0
    0.0441   10.0622    0.9809 H   0  0  0  0  0  0  0  0  0  0  0  0
   -2.5449   12.1846   -0.6191 H   0  0  0  0  0  0  0  0  0  0  0  0
   -0.7953   12.4165   -0.0550 H   0  0  0  0  0  0  0  0  0  0  0  0
   -1.8346   12.4121   -2.9028 H   0  0  0  0  0  0  0  0  0  0  0  0
   -1.1161   13.7807   -1.9656 H   0  0  0  0  0  0  0  0  0  0  0  0
    0.9072   12.5716   -0.5023 H   0  0  0  0  0  0  0  0  0  0  0  0
    2.2659   12.2208   -1.6237 H   0  0  0  0  0  0  0  0  0  0  0  0
    1.4977   13.8446   -1.6237 H   0  0  0  0  0  0  0  0  0  0  0  0
  1  2  1  0
  2  3  1  0
  3  4  1  0
  4  5  1  0
  5  6  1  0
  6  7  1  0
  7  8  1  0
  7  9  1  0
  2 10  1  0
 10 11  1  0
 11 12  1  0
 12 13  1  0
 13 14  1  6
 13 15  1  0
 15 16  1  0
 16 17  1  0
 17 18  2  0
 18 19  1  0
 19 20  1  0
 20 21  1  0
 21 22  1  0
 22 23  1  0
 22 24  1  0
 24 25  1  0
 24 26  1  0
 19 27  1  0
 27 28  1  1
 27 29  1  0
 29 30  1  0
 30 31  1  0
 31 32  1  1
  7  5  1  0
 31 10  1  0
 31 13  1  0
 27 15  1  0
 24 18  1  0
  1 33  1  0
  1 34  1  0
  1 35  1  0
  2 36  1  6
  3 37  1  0
  3 38  1  0
  4 39  1  0
  4 40  1  0
  5 41  1  1
  8 42  1  0
  8 43  1  0
  8 44  1  0
  9 45  1  0
  9 46  1  0
  9 47  1  0
 10 48  1  6
 11 49  1  0
 11 50  1  0
 12 51  1  0
 12 52  1  0
 14 53  1  0
 14 54  1  0
 14 55  1  0
 15 56  1  1
 16 57  1  0
 16 58  1  0
 17 59  1  0
 19 60  1  6
 20 61  1  0
 20 62  1  0
 21 63  1  0
 21 64  1  0
 22 65  1  6
 23 66  1  0
 25 67  1  0
 25 68  1  0
 25 69  1  0
 26 70  1  0
 26 71  1  0
 26 72  1  0
 28 73  1  0
 28 74  1  0
 28 75  1  0
 29 76  1  0
 29 77  1  0
 30 78  1  0
 30 79  1  0
 32 80  1  0
 32 81  1  0
 32 82  1  0
M  END
>  <meeko>  (19) 
{"is_sidechain": [false], "intermolecular_energy": 2.731, "internal_energy": -0.839}

$$$$
