EPH_relaxed_0001_pdb2pqr_Repair_68_r2_0001_out
     RDKit          3D

 82 86  0  0  0  0  0  0  0  0999 V2000
   -1.7020    8.5900   -1.8780 C   0  0  0  0  0  0  0  0  0  0  0  0
   -2.0780    9.1230   -0.4920 C   0  0  2  0  0  0  0  0  0  0  0  0
   -3.5690    9.5050   -0.4020 C   0  0  0  0  0  0  0  0  0  0  0  0
   -4.5040    8.3030   -0.2510 C   0  0  0  0  0  0  0  0  0  0  0  0
   -5.2120    7.9860   -1.5330 C   0  0  2  0  0  0  0  0  0  0  0  0
   -6.3780    8.7820   -1.7860 O   0  0  0  0  0  0  0  0  0  0  0  0
   -6.5990    7.3750   -1.5950 C   0  0  0  0  0  0  0  0  0  0  0  0
   -7.3620    7.0430   -0.3500 C   0  0  0  0  0  0  0  0  0  0  0  0
   -7.0090    6.6540   -2.8410 C   0  0  0  0  0  0  0  0  0  0  0  0
   -1.2090   10.3260   -0.1450 C   0  0  1  0  0  0  0  0  0  0  0  0
   -0.1660   10.0110    0.9600 C   0  0  0  0  0  0  0  0  0  0  0  0
    1.1030   10.8350    0.6250 C   0  0  0  0  0  0  0  0  0  0  0  0
    0.6420   11.8400   -0.4570 C   0  0  1  0  0  0  0  0  0  0  0  0
   -0.0510   12.9930    0.3350 C   0  0  0  0  0  0  0  0  0  0  0  0
    1.7520   12.3830   -1.4140 C   0  0  2  0  0  0  0  0  0  0  0  0
    2.8670   13.1910   -0.7280 C   0  0  0  0  0  0  0  0  0  0  0  0
    2.6230   14.6610   -0.6330 C   0  0  0  0  0  0  0  0  0  0  0  0
    1.6950   15.3460   -1.3270 C   0  0  0  0  0  0  0  0  0  0  0  0
    0.8340   14.6520   -2.3900 C   0  0  1  0  0  0  0  0  0  0  0  0
    0.7950   15.5210   -3.6740 C   0  0  0  0  0  0  0  0  0  0  0  0
    0.3410   16.9510   -3.3980 C   0  0  0  0  0  0  0  0  0  0  0  0
    1.2550   17.6280   -2.3800 C   0  0  2  0  0  0  0  0  0  0  0  0
    2.5510   17.7950   -2.9640 O   0  0  0  0  0  0  0  0  0  0  0  0
    1.3800   16.8370   -1.0480 C   0  0  0  0  0  0  0  0  0  0  0  0
    0.0440   16.9140   -0.2690 C   0  0  0  0  0  0  0  0  0  0  0  0
    2.4380   17.5520   -0.1650 C   0  0  0  0  0  0  0  0  0  0  0  0
    1.1960   13.1340   -2.6920 C   0  0  1  0  0  0  0  0  0  0  0  0
    2.3160   13.0590   -3.7740 C   0  0  0  0  0  0  0  0  0  0  0  0
   -0.0640   12.4170   -3.3060 C   0  0  0  0  0  0  0  0  0  0  0  0
   -1.0630   11.7960   -2.3120 C   0  0  0  0  0  0  0  0  0  0  0  0
   -0.3400   10.9270   -1.2780 C   0  0  2  0  0  0  0  0  0  0  0  0
    0.3480    9.7460   -2.0430 C   0  0  0  0  0  0  0  0  0  0  0  0
   -1.0711    7.6956   -1.7681 H   0  0  0  0  0  0  0  0  0  0  0  0
   -2.6164    8.3281   -2.4306 H   0  0  0  0  0  0  0  0  0  0  0  0
   -1.1485    9.3635   -2.4306 H   0  0  0  0  0  0  0  0  0  0  0  0
   -1.9005    8.3152    0.2333 H   0  0  0  0  0  0  0  0  0  0  0  0
   -3.7068   10.1636    0.4682 H   0  0  0  0  0  0  0  0  0  0  0  0
   -3.8318    9.9997   -1.3487 H   0  0  0  0  0  0  0  0  0  0  0  0
   -3.9124    7.4276    0.0552 H   0  0  0  0  0  0  0  0  0  0  0  0
   -5.2619    8.5516    0.5064 H   0  0  0  0  0  0  0  0  0  0  0  0
   -4.2627    7.7108   -2.0159 H   0  0  0  0  0  0  0  0  0  0  0  0
   -6.7582    7.3057    0.5311 H   0  0  0  0  0  0  0  0  0  0  0  0
   -8.3025    7.6133   -0.3333 H   0  0  0  0  0  0  0  0  0  0  0  0
   -7.5858    5.9661   -0.3333 H   0  0  0  0  0  0  0  0  0  0  0  0
   -7.5362    5.7269   -2.5715 H   0  0  0  0  0  0  0  0  0  0  0  0
   -7.6768    7.2966   -3.4336 H   0  0  0  0  0  0  0  0  0  0  0  0
   -6.1153    6.4086   -3.4336 H   0  0  0  0  0  0  0  0  0  0  0  0
   -1.9927   11.0406    0.1470 H   0  0  0  0  0  0  0  0  0  0  0  0
   -0.5581   10.3031    1.9453 H   0  0  0  0  0  0  0  0  0  0  0  0
    0.0596    8.9350    0.9949 H   0  0  0  0  0  0  0  0  0  0  0  0
    1.4683   11.3652    1.5169 H   0  0  0  0  0  0  0  0  0  0  0  0
    1.9325   10.2009    0.2788 H   0  0  0  0  0  0  0  0  0  0  0  0
    0.0573   12.8128    1.4147 H   0  0  0  0  0  0  0  0  0  0  0  0
    0.4205   13.9520    0.0742 H   0  0  0  0  0  0  0  0  0  0  0  0
   -1.1191   13.0266    0.0742 H   0  0  0  0  0  0  0  0  0  0  0  0
    2.2294   11.4581   -1.7699 H   0  0  0  0  0  0  0  0  0  0  0  0
    2.9911   12.8003    0.2928 H   0  0  0  0  0  0  0  0  0  0  0  0
    3.7612   13.0709   -1.3573 H   0  0  0  0  0  0  0  0  0  0  0  0
    3.2549   15.2324    0.0628 H   0  0  0  0  0  0  0  0  0  0  0  0
   -0.1758   14.5757   -1.9605 H   0  0  0  0  0  0  0  0  0  0  0  0
    1.8038   15.5494   -4.1115 H   0  0  0  0  0  0  0  0  0  0  0  0
    0.0680   15.0666   -4.3632 H   0  0  0  0  0  0  0  0  0  0  0  0
    0.3627   17.5230   -4.3373 H   0  0  0  0  0  0  0  0  0  0  0  0
   -0.6794   16.9219   -2.9882 H   0  0  0  0  0  0  0  0  0  0  0  0
    0.8051   18.5993   -2.1268 H   0  0  0  0  0  0  0  0  0  0  0  0
    2.5800   18.6790   -3.3670 H   0  0  0  0  0  0  0  0  0  0  0  0
    0.2485   16.9022    0.8118 H   0  0  0  0  0  0  0  0  0  0  0  0
   -0.4811   17.8439   -0.5327 H   0  0  0  0  0  0  0  0  0  0  0  0
   -0.5845   16.0506   -0.5327 H   0  0  0  0  0  0  0  0  0  0  0  0
    2.1992   17.3906    0.8966 H   0  0  0  0  0  0  0  0  0  0  0  0
    3.4351   17.1419   -0.3830 H   0  0  0  0  0  0  0  0  0  0  0  0
    2.4293   18.6302   -0.3830 H   0  0  0  0  0  0  0  0  0  0  0  0
    3.2975   12.9933   -3.2818 H   0  0  0  0  0  0  0  0  0  0  0  0
    2.1603   12.1693   -4.4018 H   0  0  0  0  0  0  0  0  0  0  0  0
    2.2803   13.9615   -4.4018 H   0  0  0  0  0  0  0  0  0  0  0  0
   -0.6100   13.1598   -3.9061 H   0  0  0  0  0  0  0  0  0  0  0  0
    0.3384   11.5678   -3.8778 H   0  0  0  0  0  0  0  0  0  0  0  0
   -1.6008   12.6021   -1.7915 H   0  0  0  0  0  0  0  0  0  0  0  0
   -1.7666   11.1624   -2.8719 H   0  0  0  0  0  0  0  0  0  0  0  0
    0.7640    9.0319   -1.3171 H   0  0  0  0  0  0  0  0  0  0  0  0
   -0.3945    9.2363   -2.6746 H   0  0  0  0  0  0  0  0  0  0  0  0
    1.1576   10.1405   -2.6746 H   0  0  0  0  0  0  0  0  0  0  0  0
  1  2  1  0
  2  3  1  0
  3  4  1  0
  4  5  1  0
  5  6  1  0
  6  7  1  0
  7  8  1  0
  7  9  1  0
  2 10  1  0
 10 11  1  0
 11 12  1  0
 12 13  1  0
 13 14  1  1
 13 15  1  0
 15 16  1  0
 16 17  1  0
 17 18  2  0
 18 19  1  0
 19 20  1  0
 20 21  1  0
 21 22  1  0
 22 23  1  0
 22 24  1  0
 24 25  1  0
 24 26  1  0
 19 27  1  0
 27 28  1  6
 27 29  1  0
 29 30  1  0
 30 31  1  0
 31 32  1  6
  7  5  1  0
 31 10  1  0
 31 13  1  0
 27 15  1  0
 24 18  1  0
  1 33  1  0
  1 34  1  0
  1 35  1  0
  2 36  1  1
  3 37  1  0
  3 38  1  0
  4 39  1  0
  4 40  1  0
  5 41  1  6
  8 42  1  0
  8 43  1  0
  8 44  1  0
  9 45  1  0
  9 46  1  0
  9 47  1  0
 10 48  1  1
 11 49  1  0
 11 50  1  0
 12 51  1  0
 12 52  1  0
 14 53  1  0
 14 54  1  0
 14 55  1  0
 15 56  1  6
 16 57  1  0
 16 58  1  0
 17 59  1  0
 19 60  1  1
 20 61  1  0
 20 62  1  0
 21 63  1  0
 21 64  1  0
 22 65  1  1
 23 66  1  0
 25 67  1  0
 25 68  1  0
 25 69  1  0
 26 70  1  0
 26 71  1  0
 26 72  1  0
 28 73  1  0
 28 74  1  0
 28 75  1  0
 29 76  1  0
 29 77  1  0
 30 78  1  0
 30 79  1  0
 32 80  1  0
 32 81  1  0
 32 82  1  0
M  END
>  <meeko>  (1) 
{"is_sidechain": [false], "intermolecular_energy": 2.731, "internal_energy": -0.839}

$$$$
EPH_relaxed_0001_pdb2pqr_Repair_68_r2_0001_out
     RDKit          3D

 82 86  0  0  0  0  0  0  0  0999 V2000
    0.4390   18.4470   -0.0090 C   0  0  0  0  0  0  0  0  0  0  0  0
    1.5220   17.3860   -0.2250 C   0  0  2  0  0  0  0  0  0  0  0  0
    2.7410   17.9460   -0.9850 C   0  0  0  0  0  0  0  0  0  0  0  0
    3.9720   18.1610   -0.1010 C   0  0  0  0  0  0  0  0  0  0  0  0
    3.5940   18.6330    1.2700 C   0  0  2  0  0  0  0  0  0  0  0  0
    3.8390   20.0250    1.5130 O   0  0  0  0  0  0  0  0  0  0  0  0
    4.6040   19.0990    2.3020 C   0  0  0  0  0  0  0  0  0  0  0  0
    6.0710   19.1160    2.0070 C   0  0  0  0  0  0  0  0  0  0  0  0
    4.2140   19.0740    3.7470 C   0  0  0  0  0  0  0  0  0  0  0  0
    0.9400   16.1960   -0.9790 C   0  0  1  0  0  0  0  0  0  0  0  0
    0.7870   16.4680   -2.4990 C   0  0  0  0  0  0  0  0  0  0  0  0
    1.0700   15.1270   -3.2240 C   0  0  0  0  0  0  0  0  0  0  0  0
    1.0470   14.0640   -2.1010 C   0  0  1  0  0  0  0  0  0  0  0  0
   -0.4660   13.7620   -1.8650 C   0  0  0  0  0  0  0  0  0  0  0  0
    1.8610   12.7560   -2.3700 C   0  0  2  0  0  0  0  0  0  0  0  0
    1.3750   11.9210   -3.5680 C   0  0  0  0  0  0  0  0  0  0  0  0
    0.3510   10.8830   -3.2470 C   0  0  0  0  0  0  0  0  0  0  0  0
    0.0490   10.4370   -2.0140 C   0  0  0  0  0  0  0  0  0  0  0  0
    0.8370   10.9150   -0.7880 C   0  0  1  0  0  0  0  0  0  0  0  0
    1.2100    9.6970    0.0970 C   0  0  0  0  0  0  0  0  0  0  0  0
   -0.0060    8.8560    0.4760 C   0  0  0  0  0  0  0  0  0  0  0  0
   -0.7290    8.3500   -0.7690 C   0  0  2  0  0  0  0  0  0  0  0  0
    0.1210    7.4220   -1.4510 O   0  0  0  0  0  0  0  0  0  0  0  0
   -1.1450    9.4890   -1.7410 C   0  0  0  0  0  0  0  0  0  0  0  0
   -2.2900   10.3190   -1.1110 C   0  0  0  0  0  0  0  0  0  0  0  0
   -1.7370    8.8340   -3.0190 C   0  0  0  0  0  0  0  0  0  0  0  0
    2.0830   11.8550   -1.0890 C   0  0  1  0  0  0  0  0  0  0  0  0
    3.3480   10.9880   -1.3680 C   0  0  0  0  0  0  0  0  0  0  0  0
    2.4040   12.7090    0.1950 C   0  0  0  0  0  0  0  0  0  0  0  0
    1.6560   14.0470    0.3440 C   0  0  0  0  0  0  0  0  0  0  0  0
    1.7430   14.8710   -0.9450 C   0  0  2  0  0  0  0  0  0  0  0  0
    3.2520   15.2080   -1.1970 C   0  0  0  0  0  0  0  0  0  0  0  0
    0.2842   18.5987    1.0694 H   0  0  0  0  0  0  0  0  0  0  0  0
    0.7560   19.3938   -0.4706 H   0  0  0  0  0  0  0  0  0  0  0  0
   -0.5011   18.1107   -0.4706 H   0  0  0  0  0  0  0  0  0  0  0  0
    1.8716   17.0634    0.7668 H   0  0  0  0  0  0  0  0  0  0  0  0
    3.0068   17.2386   -1.7843 H   0  0  0  0  0  0  0  0  0  0  0  0
    2.4504   18.9320   -1.3765 H   0  0  0  0  0  0  0  0  0  0  0  0
    4.5180   17.2102   -0.0128 H   0  0  0  0  0  0  0  0  0  0  0  0
    4.5995   18.9339   -0.5689 H   0  0  0  0  0  0  0  0  0  0  0  0
    2.7708   17.9051    1.3194 H   0  0  0  0  0  0  0  0  0  0  0  0
    6.6349   19.1225    2.9515 H   0  0  0  0  0  0  0  0  0  0  0  0
    6.3386   18.2209    1.4263 H   0  0  0  0  0  0  0  0  0  0  0  0
    6.3178   20.0171    1.4263 H   0  0  0  0  0  0  0  0  0  0  0  0
    5.1175   19.1319    4.3717 H   0  0  0  0  0  0  0  0  0  0  0  0
    3.5615   19.9322    3.9656 H   0  0  0  0  0  0  0  0  0  0  0  0
    3.6764   18.1395    3.9656 H   0  0  0  0  0  0  0  0  0  0  0  0
   -0.0069   16.0767   -0.4320 H   0  0  0  0  0  0  0  0  0  0  0  0
   -0.2342   16.8108   -2.7216 H   0  0  0  0  0  0  0  0  0  0  0  0
    1.4833   17.2517   -2.8321 H   0  0  0  0  0  0  0  0  0  0  0  0
    0.2913   14.9182   -3.9723 H   0  0  0  0  0  0  0  0  0  0  0  0
    2.0268   15.1399   -3.7666 H   0  0  0  0  0  0  0  0  0  0  0  0
   -0.6677   13.7217   -0.7844 H   0  0  0  0  0  0  0  0  0  0  0  0
   -1.0741   14.5565   -2.3221 H   0  0  0  0  0  0  0  0  0  0  0  0
   -0.7225   12.7949   -2.3221 H   0  0  0  0  0  0  0  0  0  0  0  0
    2.8478   13.1471   -2.6585 H   0  0  0  0  0  0  0  0  0  0  0  0
    0.9412   12.6091   -4.3085 H   0  0  0  0  0  0  0  0  0  0  0  0
    2.2562   11.3759   -3.9371 H   0  0  0  0  0  0  0  0  0  0  0  0
   -0.2037   10.4457   -4.0902 H   0  0  0  0  0  0  0  0  0  0  0  0
    0.1614   11.5839   -0.2347 H   0  0  0  0  0  0  0  0  0  0  0  0
    1.9189    9.0631   -0.4558 H   0  0  0  0  0  0  0  0  0  0  0  0
    1.6528   10.0827    1.0271 H   0  0  0  0  0  0  0  0  0  0  0  0
    0.3246    7.9948    1.0752 H   0  0  0  0  0  0  0  0  0  0  0  0
   -0.7002    9.4834    1.0543 H   0  0  0  0  0  0  0  0  0  0  0  0
   -1.6592    7.8661   -0.4363 H   0  0  0  0  0  0  0  0  0  0  0  0
   -0.3320    7.1540   -2.2690 H   0  0  0  0  0  0  0  0  0  0  0  0
   -2.2195   10.2679   -0.0145 H   0  0  0  0  0  0  0  0  0  0  0  0
   -2.2049   11.3666   -1.4355 H   0  0  0  0  0  0  0  0  0  0  0  0
   -3.2592    9.9122   -1.4355 H   0  0  0  0  0  0  0  0  0  0  0  0
   -2.4489    8.0464   -2.7312 H   0  0  0  0  0  0  0  0  0  0  0  0
   -2.2570    9.5981   -3.6154 H   0  0  0  0  0  0  0  0  0  0  0  0
   -0.9244    8.3937   -3.6154 H   0  0  0  0  0  0  0  0  0  0  0  0
    3.7987   10.6791   -0.4133 H   0  0  0  0  0  0  0  0  0  0  0  0
    3.0613   10.0957   -1.9438 H   0  0  0  0  0  0  0  0  0  0  0  0
    4.0768   11.5774   -1.9438 H   0  0  0  0  0  0  0  0  0  0  0  0
    2.1620   12.0928    1.0735 H   0  0  0  0  0  0  0  0  0  0  0  0
    3.4656   12.9816    0.1014 H   0  0  0  0  0  0  0  0  0  0  0  0
    0.5989   13.8448    0.5711 H   0  0  0  0  0  0  0  0  0  0  0  0
    2.1222   14.6204    1.1588 H   0  0  0  0  0  0  0  0  0  0  0  0
    3.7680   15.3232   -0.2324 H   0  0  0  0  0  0  0  0  0  0  0  0
    3.7195   14.3921   -1.7678 H   0  0  0  0  0  0  0  0  0  0  0  0
    3.3280   16.1452   -1.7678 H   0  0  0  0  0  0  0  0  0  0  0  0
  1  2  1  0
  2  3  1  0
  3  4  1  0
  4  5  1  0
  5  6  1  0
  6  7  1  0
  7  8  1  0
  7  9  1  0
  2 10  1  0
 10 11  1  0
 11 12  1  0
 12 13  1  0
 13 14  1  1
 13 15  1  0
 15 16  1  0
 16 17  1  0
 17 18  2  0
 18 19  1  0
 19 20  1  0
 20 21  1  0
 21 22  1  0
 22 23  1  0
 22 24  1  0
 24 25  1  0
 24 26  1  0
 19 27  1  0
 27 28  1  6
 27 29  1  0
 29 30  1  0
 30 31  1  0
 31 32  1  6
  7  5  1  0
 31 10  1  0
 31 13  1  0
 27 15  1  0
 24 18  1  0
  1 33  1  0
  1 34  1  0
  1 35  1  0
  2 36  1  1
  3 37  1  0
  3 38  1  0
  4 39  1  0
  4 40  1  0
  5 41  1  1
  8 42  1  0
  8 43  1  0
  8 44  1  0
  9 45  1  0
  9 46  1  0
  9 47  1  0
 10 48  1  1
 11 49  1  0
 11 50  1  0
 12 51  1  0
 12 52  1  0
 14 53  1  0
 14 54  1  0
 14 55  1  0
 15 56  1  6
 16 57  1  0
 16 58  1  0
 17 59  1  0
 19 60  1  1
 20 61  1  0
 20 62  1  0
 21 63  1  0
 21 64  1  0
 22 65  1  1
 23 66  1  0
 25 67  1  0
 25 68  1  0
 25 69  1  0
 26 70  1  0
 26 71  1  0
 26 72  1  0
 28 73  1  0
 28 74  1  0
 28 75  1  0
 29 76  1  0
 29 77  1  0
 30 78  1  0
 30 79  1  0
 32 80  1  0
 32 81  1  0
 32 82  1  0
M  END
>  <meeko>  (2) 
{"is_sidechain": [false], "intermolecular_energy": 2.731, "internal_energy": -0.839}

$$$$
EPH_relaxed_0001_pdb2pqr_Repair_68_r2_0001_out
     RDKit          3D

 82 86  0  0  0  0  0  0  0  0999 V2000
    2.2880   18.0860   -2.7660 C   0  0  0  0  0  0  0  0  0  0  0  0
    1.0110   17.6820   -2.0230 C   0  0  2  0  0  0  0  0  0  0  0  0
    1.1820   17.7550   -0.4930 C   0  0  0  0  0  0  0  0  0  0  0  0
    0.8270   19.1200    0.1020 C   0  0  0  0  0  0  0  0  0  0  0  0
   -0.6150   19.1930    0.5010 C   0  0  2  0  0  0  0  0  0  0  0  0
   -1.4790   18.2940   -0.2070 O   0  0  0  0  0  0  0  0  0  0  0  0
   -1.7130   19.6960   -0.4180 C   0  0  0  0  0  0  0  0  0  0  0  0
   -1.4150   20.1610   -1.8080 C   0  0  0  0  0  0  0  0  0  0  0  0
   -2.9860   20.1930    0.1940 C   0  0  0  0  0  0  0  0  0  0  0  0
    0.5930   16.2750   -2.4350 C   0  0  1  0  0  0  0  0  0  0  0  0
    0.7020   16.0430   -3.9650 C   0  0  0  0  0  0  0  0  0  0  0  0
    1.1330   14.5670   -4.1640 C   0  0  0  0  0  0  0  0  0  0  0  0
    0.9370   13.9130   -2.7770 C   0  0  1  0  0  0  0  0  0  0  0  0
   -0.5880   13.5890   -2.6980 C   0  0  0  0  0  0  0  0  0  0  0  0
    1.8110   12.6520   -2.4770 C   0  0  2  0  0  0  0  0  0  0  0  0
    1.5580   11.4480   -3.4020 C   0  0  0  0  0  0  0  0  0  0  0  0
    0.5150   10.4900   -2.9300 C   0  0  0  0  0  0  0  0  0  0  0  0
    0.0120   10.4330   -1.6830 C   0  0  0  0  0  0  0  0  0  0  0  0
    0.5650   11.3310   -0.5690 C   0  0  1  0  0  0  0  0  0  0  0  0
    0.8030   10.4840    0.7090 C   0  0  0  0  0  0  0  0  0  0  0  0
   -0.4430    9.7170    1.1420 C   0  0  0  0  0  0  0  0  0  0  0  0
   -0.9280    8.7920    0.0290 C   0  0  2  0  0  0  0  0  0  0  0  0
    0.0460    7.7630   -0.1730 O   0  0  0  0  0  0  0  0  0  0  0  0
   -1.1920    9.5330   -1.3110 C   0  0  0  0  0  0  0  0  0  0  0  0
   -2.4460   10.4310   -1.1720 C   0  0  0  0  0  0  0  0  0  0  0  0
   -1.5390    8.4670   -2.3860 C   0  0  0  0  0  0  0  0  0  0  0  0
    1.8250   12.2190   -0.9550 C   0  0  1  0  0  0  0  0  0  0  0  0
    3.1370   11.4060   -0.7360 C   0  0  0  0  0  0  0  0  0  0  0  0
    1.9010   13.4550    0.0170 C   0  0  0  0  0  0  0  0  0  0  0  0
    1.1110   14.7120   -0.3940 C   0  0  0  0  0  0  0  0  0  0  0  0
    1.4040   15.0930   -1.8480 C   0  0  2  0  0  0  0  0  0  0  0  0
    2.9270   15.4460   -1.9530 C   0  0  0  0  0  0  0  0  0  0  0  0
    3.0734   18.3345   -2.0370 H   0  0  0  0  0  0  0  0  0  0  0  0
    2.6248   17.2505   -3.3973 H   0  0  0  0  0  0  0  0  0  0  0  0
    2.0830   18.9632   -3.3973 H   0  0  0  0  0  0  0  0  0  0  0  0
    0.2249   18.3993   -2.3013 H   0  0  0  0  0  0  0  0  0  0  0  0
    0.5308   16.9964   -0.0343 H   0  0  0  0  0  0  0  0  0  0  0  0
    2.2467   17.5788   -0.2800 H   0  0  0  0  0  0  0  0  0  0  0  0
    1.4518   19.2950    0.9902 H   0  0  0  0  0  0  0  0  0  0  0  0
    1.0093   19.8864   -0.6658 H   0  0  0  0  0  0  0  0  0  0  0  0
   -0.3402   19.4534    1.5338 H   0  0  0  0  0  0  0  0  0  0  0  0
   -0.8219   21.0865   -1.7658 H   0  0  0  0  0  0  0  0  0  0  0  0
   -0.8458   19.3847   -2.3402 H   0  0  0  0  0  0  0  0  0  0  0  0
   -2.3581   20.3539   -2.3402 H   0  0  0  0  0  0  0  0  0  0  0  0
   -2.9029   20.1605    1.2904 H   0  0  0  0  0  0  0  0  0  0  0  0
   -3.1685   21.2284   -0.1294 H   0  0  0  0  0  0  0  0  0  0  0  0
   -3.8218   19.5551   -0.1294 H   0  0  0  0  0  0  0  0  0  0  0  0
   -0.4323   16.2628   -2.0369 H   0  0  0  0  0  0  0  0  0  0  0  0
   -0.2713   16.2215   -4.4455 H   0  0  0  0  0  0  0  0  0  0  0  0
    1.4304   16.7317   -4.4180 H   0  0  0  0  0  0  0  0  0  0  0  0
    0.5001   14.0759   -4.9178 H   0  0  0  0  0  0  0  0  0  0  0  0
    2.1689   14.4798   -4.5236 H   0  0  0  0  0  0  0  0  0  0  0  0
   -0.8949   13.5238   -1.6437 H   0  0  0  0  0  0  0  0  0  0  0  0
   -1.1585   14.3860   -3.1973 H   0  0  0  0  0  0  0  0  0  0  0  0
   -0.7852   12.6289   -3.1973 H   0  0  0  0  0  0  0  0  0  0  0  0
    2.8247   13.0055   -2.7167 H   0  0  0  0  0  0  0  0  0  0  0  0
    1.2463   11.8333   -4.3840 H   0  0  0  0  0  0  0  0  0  0  0  0
    2.5009   10.8821   -3.4301 H   0  0  0  0  0  0  0  0  0  0  0  0
    0.1244    9.7695   -3.6637 H   0  0  0  0  0  0  0  0  0  0  0  0
   -0.2096   12.0880   -0.3767 H   0  0  0  0  0  0  0  0  0  0  0  0
    1.6094    9.7630    0.5093 H   0  0  0  0  0  0  0  0  0  0  0  0
    1.0701   11.1744    1.5226 H   0  0  0  0  0  0  0  0  0  0  0  0
   -0.2046    9.1156    2.0317 H   0  0  0  0  0  0  0  0  0  0  0  0
   -1.2396   10.4407    1.3693 H   0  0  0  0  0  0  0  0  0  0  0  0
   -1.8918    8.3686    0.3481 H   0  0  0  0  0  0  0  0  0  0  0  0
    0.8050    7.9600    0.4020 H   0  0  0  0  0  0  0  0  0  0  0  0
   -2.6672   10.5894   -0.1062 H   0  0  0  0  0  0  0  0  0  0  0  0
   -2.2578   11.4009   -1.6555 H   0  0  0  0  0  0  0  0  0  0  0  0
   -3.3037    9.9405   -1.6555 H   0  0  0  0  0  0  0  0  0  0  0  0
   -1.8431    7.5328   -1.8912 H   0  0  0  0  0  0  0  0  0  0  0  0
   -2.3639    8.8346   -3.0141 H   0  0  0  0  0  0  0  0  0  0  0  0
   -0.6558    8.2786   -3.0141 H   0  0  0  0  0  0  0  0  0  0  0  0
    3.3217   11.2915    0.3423 H   0  0  0  0  0  0  0  0  0  0  0  0
    3.0344   10.4130   -1.1979 H   0  0  0  0  0  0  0  0  0  0  0  0
    3.9806   11.9399   -1.1979 H   0  0  0  0  0  0  0  0  0  0  0  0
    1.5233   13.1306    0.9979 H   0  0  0  0  0  0  0  0  0  0  0  0
    2.9569   13.7633    0.0083 H   0  0  0  0  0  0  0  0  0  0  0  0
    0.0348   14.5124   -0.2842 H   0  0  0  0  0  0  0  0  0  0  0  0
    1.4164   15.5458    0.2552 H   0  0  0  0  0  0  0  0  0  0  0  0
    3.3511   15.5443   -0.9428 H   0  0  0  0  0  0  0  0  0  0  0  0
    3.4523   14.6458   -2.4950 H   0  0  0  0  0  0  0  0  0  0  0  0
    3.0468   16.3957   -2.4950 H   0  0  0  0  0  0  0  0  0  0  0  0
  1  2  1  0
  2  3  1  0
  3  4  1  0
  4  5  1  0
  5  6  1  0
  6  7  1  0
  7  8  1  0
  7  9  1  0
  2 10  1  0
 10 11  1  0
 11 12  1  0
 12 13  1  0
 13 14  1  1
 13 15  1  0
 15 16  1  0
 16 17  1  0
 17 18  2  0
 18 19  1  0
 19 20  1  0
 20 21  1  0
 21 22  1  0
 22 23  1  0
 22 24  1  0
 24 25  1  0
 24 26  1  0
 19 27  1  0
 27 28  1  6
 27 29  1  0
 29 30  1  0
 30 31  1  0
 31 32  1  1
  7  5  1  0
 31 10  1  0
 31 13  1  0
 27 15  1  0
 24 18  1  0
  1 33  1  0
  1 34  1  0
  1 35  1  0
  2 36  1  6
  3 37  1  0
  3 38  1  0
  4 39  1  0
  4 40  1  0
  5 41  1  1
  8 42  1  0
  8 43  1  0
  8 44  1  0
  9 45  1  0
  9 46  1  0
  9 47  1  0
 10 48  1  1
 11 49  1  0
 11 50  1  0
 12 51  1  0
 12 52  1  0
 14 53  1  0
 14 54  1  0
 14 55  1  0
 15 56  1  6
 16 57  1  0
 16 58  1  0
 17 59  1  0
 19 60  1  1
 20 61  1  0
 20 62  1  0
 21 63  1  0
 21 64  1  0
 22 65  1  1
 23 66  1  0
 25 67  1  0
 25 68  1  0
 25 69  1  0
 26 70  1  0
 26 71  1  0
 26 72  1  0
 28 73  1  0
 28 74  1  0
 28 75  1  0
 29 76  1  0
 29 77  1  0
 30 78  1  0
 30 79  1  0
 32 80  1  0
 32 81  1  0
 32 82  1  0
M  END
>  <meeko>  (3) 
{"is_sidechain": [false], "intermolecular_energy": 2.731, "internal_energy": -0.839}

$$$$
EPH_relaxed_0001_pdb2pqr_Repair_68_r2_0001_out
     RDKit          3D

 82 86  0  0  0  0  0  0  0  0999 V2000
   -3.4240    9.3400    0.5240 C   0  0  0  0  0  0  0  0  0  0  0  0
   -2.5830    9.6870   -0.7070 C   0  0  2  0  0  0  0  0  0  0  0  0
   -1.9150    8.4420   -1.3240 C   0  0  0  0  0  0  0  0  0  0  0  0
   -2.8270    7.6610   -2.2740 C   0  0  0  0  0  0  0  0  0  0  0  0
   -4.2680    7.7770   -1.8790 C   0  0  2  0  0  0  0  0  0  0  0  0
   -4.8320    6.5860   -1.3130 O   0  0  0  0  0  0  0  0  0  0  0  0
   -5.3870    7.0170   -2.5660 C   0  0  0  0  0  0  0  0  0  0  0  0
   -5.1140    6.0860   -3.7060 C   0  0  0  0  0  0  0  0  0  0  0  0
   -6.7840    7.5460   -2.4560 C   0  0  0  0  0  0  0  0  0  0  0  0
   -1.5230   10.7180   -0.3380 C   0  0  1  0  0  0  0  0  0  0  0  0
   -0.4260   10.1390    0.5940 C   0  0  0  0  0  0  0  0  0  0  0  0
    0.9060   10.8300    0.2010 C   0  0  0  0  0  0  0  0  0  0  0  0
    0.4800   12.0100   -0.7040 C   0  0  1  0  0  0  0  0  0  0  0  0
    0.0420   13.1360    0.2850 C   0  0  0  0  0  0  0  0  0  0  0  0
    1.5510   12.5200   -1.7220 C   0  0  2  0  0  0  0  0  0  0  0  0
    2.8330   13.0900   -1.0910 C   0  0  0  0  0  0  0  0  0  0  0  0
    2.8090   14.5560   -0.8100 C   0  0  0  0  0  0  0  0  0  0  0  0
    1.9200   15.4330   -1.3100 C   0  0  0  0  0  0  0  0  0  0  0  0
    0.8650   14.9900   -2.3320 C   0  0  1  0  0  0  0  0  0  0  0  0
    0.8160   16.0090   -3.5010 C   0  0  0  0  0  0  0  0  0  0  0  0
    0.5980   17.4400   -3.0200 C   0  0  0  0  0  0  0  0  0  0  0  0
    1.6980   17.8640   -2.0520 C   0  0  2  0  0  0  0  0  0  0  0  0
    2.9370   17.9350   -2.7640 O   0  0  0  0  0  0  0  0  0  0  0  0
    1.8480   16.9060   -0.8370 C   0  0  0  0  0  0  0  0  0  0  0  0
    0.6240   17.0570    0.0990 C   0  0  0  0  0  0  0  0  0  0  0  0
    3.0820   17.3670   -0.0150 C   0  0  0  0  0  0  0  0  0  0  0  0
    0.9770   13.4870   -2.8360 C   0  0  1  0  0  0  0  0  0  0  0  0
    1.9570   13.4040   -4.0460 C   0  0  0  0  0  0  0  0  0  0  0  0
   -0.4280   13.0180   -3.3700 C   0  0  0  0  0  0  0  0  0  0  0  0
   -1.3970   12.4120   -2.3360 C   0  0  0  0  0  0  0  0  0  0  0  0
   -0.7000   11.3380   -1.4950 C   0  0  2  0  0  0  0  0  0  0  0  0
   -0.2680   10.1810   -2.4600 C   0  0  0  0  0  0  0  0  0  0  0  0
   -2.8545    9.5750    1.4353 H   0  0  0  0  0  0  0  0  0  0  0  0
   -4.3535    9.9281    0.5107 H   0  0  0  0  0  0  0  0  0  0  0  0
   -3.6684    8.2676    0.5107 H   0  0  0  0  0  0  0  0  0  0  0  0
   -3.2619   10.1062   -1.4642 H   0  0  0  0  0  0  0  0  0  0  0  0
   -1.0261    8.7668   -1.8847 H   0  0  0  0  0  0  0  0  0  0  0  0
   -1.6635    7.7670   -0.4927 H   0  0  0  0  0  0  0  0  0  0  0  0
   -2.7036    8.0571   -3.2927 H   0  0  0  0  0  0  0  0  0  0  0  0
   -2.5428    6.5994   -2.2269 H   0  0  0  0  0  0  0  0  0  0  0  0
   -4.1400    8.8421   -1.6357 H   0  0  0  0  0  0  0  0  0  0  0  0
   -4.8249    5.1001   -3.3131 H   0  0  0  0  0  0  0  0  0  0  0  0
   -6.0201    5.9842   -4.3213 H   0  0  0  0  0  0  0  0  0  0  0  0
   -4.2964    6.4896   -4.3213 H   0  0  0  0  0  0  0  0  0  0  0  0
   -7.0547    7.6485   -1.3948 H   0  0  0  0  0  0  0  0  0  0  0  0
   -6.8435    8.5289   -2.9462 H   0  0  0  0  0  0  0  0  0  0  0  0
   -7.4797    6.8490   -2.9462 H   0  0  0  0  0  0  0  0  0  0  0  0
   -2.1641   11.4852    0.1206 H   0  0  0  0  0  0  0  0  0  0  0  0
   -0.6691   10.3550    1.6448 H   0  0  0  0  0  0  0  0  0  0  0  0
   -0.3514    9.0470    0.4851 H   0  0  0  0  0  0  0  0  0  0  0  0
    1.4322   11.1962    1.0949 H   0  0  0  0  0  0  0  0  0  0  0  0
    1.5988   10.1430   -0.3071 H   0  0  0  0  0  0  0  0  0  0  0  0
    0.1773   12.7882    1.3198 H   0  0  0  0  0  0  0  0  0  0  0  0
    0.6571   14.0321    0.1160 H   0  0  0  0  0  0  0  0  0  0  0  0
   -1.0170   13.3809    0.1160 H   0  0  0  0  0  0  0  0  0  0  0  0
    1.8547   11.5920   -2.2286 H   0  0  0  0  0  0  0  0  0  0  0  0
    3.0063   12.5646   -0.1402 H   0  0  0  0  0  0  0  0  0  0  0  0
    3.6311   12.9356   -1.8320 H   0  0  0  0  0  0  0  0  0  0  0  0
    3.5837   14.9525   -0.1373 H   0  0  0  0  0  0  0  0  0  0  0  0
   -0.0961   14.9903   -1.7970 H   0  0  0  0  0  0  0  0  0  0  0  0
    1.7683   15.9625   -4.0496 H   0  0  0  0  0  0  0  0  0  0  0  0
   -0.0348   15.7393   -4.1439 H   0  0  0  0  0  0  0  0  0  0  0  0
    0.6021   18.1159   -3.8878 H   0  0  0  0  0  0  0  0  0  0  0  0
   -0.3684   17.4909   -2.4970 H   0  0  0  0  0  0  0  0  0  0  0  0
    1.4173   18.8463   -1.6442 H   0  0  0  0  0  0  0  0  0  0  0  0
    2.7290   18.0080   -3.7110 H   0  0  0  0  0  0  0  0  0  0  0  0
    0.9564   17.0160    1.1468 H   0  0  0  0  0  0  0  0  0  0  0  0
    0.1330   18.0225   -0.0924 H   0  0  0  0  0  0  0  0  0  0  0  0
   -0.0870   16.2398   -0.0924 H   0  0  0  0  0  0  0  0  0  0  0  0
    2.8591   17.2837    1.0590 H   0  0  0  0  0  0  0  0  0  0  0  0
    3.9449   16.7306   -0.2608 H   0  0  0  0  0  0  0  0  0  0  0  0
    3.3162   18.4133   -0.2608 H   0  0  0  0  0  0  0  0  0  0  0  0
    2.9893   13.3166   -3.6764 H   0  0  0  0  0  0  0  0  0  0  0  0
    1.7107   12.5235   -4.6576 H   0  0  0  0  0  0  0  0  0  0  0  0
    1.8623   14.3134   -4.6576 H   0  0  0  0  0  0  0  0  0  0  0  0
   -0.9229   13.8926   -3.8174 H   0  0  0  0  0  0  0  0  0  0  0  0
   -0.2105   12.2014   -4.0741 H   0  0  0  0  0  0  0  0  0  0  0  0
   -1.7596   13.2102   -1.6716 H   0  0  0  0  0  0  0  0  0  0  0  0
   -2.2368   11.9468   -2.8729 H   0  0  0  0  0  0  0  0  0  0  0  0
    0.0564    9.3121   -1.8685 H   0  0  0  0  0  0  0  0  0  0  0  0
   -1.1200    9.8953   -3.0944 H   0  0  0  0  0  0  0  0  0  0  0  0
    0.5628   10.5236   -3.0944 H   0  0  0  0  0  0  0  0  0  0  0  0
  1  2  1  0
  2  3  1  0
  3  4  1  0
  4  5  1  0
  5  6  1  0
  6  7  1  0
  7  8  1  0
  7  9  1  0
  2 10  1  0
 10 11  1  0
 11 12  1  0
 12 13  1  0
 13 14  1  1
 13 15  1  0
 15 16  1  0
 16 17  1  0
 17 18  2  0
 18 19  1  0
 19 20  1  0
 20 21  1  0
 21 22  1  0
 22 23  1  0
 22 24  1  0
 24 25  1  0
 24 26  1  0
 19 27  1  0
 27 28  1  6
 27 29  1  0
 29 30  1  0
 30 31  1  0
 31 32  1  6
  7  5  1  0
 31 10  1  0
 31 13  1  0
 27 15  1  0
 24 18  1  0
  1 33  1  0
  1 34  1  0
  1 35  1  0
  2 36  1  6
  3 37  1  0
  3 38  1  0
  4 39  1  0
  4 40  1  0
  5 41  1  1
  8 42  1  0
  8 43  1  0
  8 44  1  0
  9 45  1  0
  9 46  1  0
  9 47  1  0
 10 48  1  1
 11 49  1  0
 11 50  1  0
 12 51  1  0
 12 52  1  0
 14 53  1  0
 14 54  1  0
 14 55  1  0
 15 56  1  6
 16 57  1  0
 16 58  1  0
 17 59  1  0
 19 60  1  1
 20 61  1  0
 20 62  1  0
 21 63  1  0
 21 64  1  0
 22 65  1  1
 23 66  1  0
 25 67  1  0
 25 68  1  0
 25 69  1  0
 26 70  1  0
 26 71  1  0
 26 72  1  0
 28 73  1  0
 28 74  1  0
 28 75  1  0
 29 76  1  0
 29 77  1  0
 30 78  1  0
 30 79  1  0
 32 80  1  0
 32 81  1  0
 32 82  1  0
M  END
>  <meeko>  (4) 
{"is_sidechain": [false], "intermolecular_energy": 2.731, "internal_energy": -0.839}

$$$$
EPH_relaxed_0001_pdb2pqr_Repair_68_r2_0001_out
     RDKit          3D

 82 86  0  0  0  0  0  0  0  0999 V2000
    3.7010   17.8660    0.6570 C   0  0  0  0  0  0  0  0  0  0  0  0
    2.7260   18.2400   -0.4630 C   0  0  2  0  0  0  0  0  0  0  0  0
    2.0100   19.5770   -0.1880 C   0  0  0  0  0  0  0  0  0  0  0  0
    0.9330   19.4870    0.8970 C   0  0  0  0  0  0  0  0  0  0  0  0
   -0.3660   20.0790    0.4400 C   0  0  2  0  0  0  0  0  0  0  0  0
   -1.3650   20.1930    1.4620 O   0  0  0  0  0  0  0  0  0  0  0  0
   -1.6660   19.2990    0.3780 C   0  0  0  0  0  0  0  0  0  0  0  0
   -1.7310   17.8590    0.7780 C   0  0  0  0  0  0  0  0  0  0  0  0
   -2.7530   19.7910   -0.5250 C   0  0  0  0  0  0  0  0  0  0  0  0
    1.7000   17.1280   -0.6510 C   0  0  1  0  0  0  0  0  0  0  0  0
    0.4780   17.5800   -1.4940 C   0  0  0  0  0  0  0  0  0  0  0  0
    0.0330   16.3520   -2.3300 C   0  0  0  0  0  0  0  0  0  0  0  0
    0.7910   15.1580   -1.7030 C   0  0  1  0  0  0  0  0  0  0  0  0
   -0.0490   14.7660   -0.4470 C   0  0  0  0  0  0  0  0  0  0  0  0
    1.0400   13.9300   -2.6380 C   0  0  2  0  0  0  0  0  0  0  0  0
   -0.2320   13.2290   -3.1460 C   0  0  0  0  0  0  0  0  0  0  0  0
   -0.7340   12.1160   -2.2870 C   0  0  0  0  0  0  0  0  0  0  0  0
   -0.0380   11.5090   -1.3080 C   0  0  0  0  0  0  0  0  0  0  0  0
    1.4310   11.8660   -1.0480 C   0  0  1  0  0  0  0  0  0  0  0  0
    2.2600   10.5640   -0.8900 C   0  0  0  0  0  0  0  0  0  0  0  0
    1.6890    9.6320    0.1740 C   0  0  0  0  0  0  0  0  0  0  0  0
    0.2460    9.2530   -0.1500 C   0  0  2  0  0  0  0  0  0  0  0  0
    0.2340    8.4540   -1.3370 O   0  0  0  0  0  0  0  0  0  0  0  0
   -0.6830   10.4850   -0.3410 C   0  0  0  0  0  0  0  0  0  0  0  0
   -0.9100   11.1810    1.0240 C   0  0  0  0  0  0  0  0  0  0  0  0
   -2.0720    9.9680   -0.8020 C   0  0  0  0  0  0  0  0  0  0  0  0
    2.0880   12.8870   -2.0730 C   0  0  1  0  0  0  0  0  0  0  0  0
    2.6560   12.1160   -3.3030 C   0  0  0  0  0  0  0  0  0  0  0  0
    3.3170   13.5890   -1.3830 C   0  0  0  0  0  0  0  0  0  0  0  0
    3.0230   14.8650   -0.5720 C   0  0  0  0  0  0  0  0  0  0  0  0
    2.1680   15.8450   -1.3820 C   0  0  2  0  0  0  0  0  0  0  0  0
    2.9960   16.2740   -2.6410 C   0  0  0  0  0  0  0  0  0  0  0  0
    3.2262   18.0481    1.6324 H   0  0  0  0  0  0  0  0  0  0  0  0
    3.9669   16.8020    0.5716 H   0  0  0  0  0  0  0  0  0  0  0  0
    4.6102   18.4792    0.5716 H   0  0  0  0  0  0  0  0  0  0  0  0
    3.3130   18.3645   -1.3849 H   0  0  0  0  0  0  0  0  0  0  0  0
    2.7618   20.3147    0.1293 H   0  0  0  0  0  0  0  0  0  0  0  0
    1.5036   19.8680   -1.1201 H   0  0  0  0  0  0  0  0  0  0  0  0
    0.7722   18.4293    1.1527 H   0  0  0  0  0  0  0  0  0  0  0  0
    1.2798   20.0561    1.7721 H   0  0  0  0  0  0  0  0  0  0  0  0
    0.1537   20.7065   -0.2990 H   0  0  0  0  0  0  0  0  0  0  0  0
   -1.7344   17.7831    1.8754 H   0  0  0  0  0  0  0  0  0  0  0  0
   -2.6504   17.4080    0.3764 H   0  0  0  0  0  0  0  0  0  0  0  0
   -0.8560   17.3270    0.3764 H   0  0  0  0  0  0  0  0  0  0  0  0
   -3.5895   20.1696    0.0807 H   0  0  0  0  0  0  0  0  0  0  0  0
   -2.3639   20.6008   -1.1598 H   0  0  0  0  0  0  0  0  0  0  0  0
   -3.1046   18.9643   -1.1598 H   0  0  0  0  0  0  0  0  0  0  0  0
    1.4784   16.9008    0.4022 H   0  0  0  0  0  0  0  0  0  0  0  0
   -0.3391   17.9046   -0.8330 H   0  0  0  0  0  0  0  0  0  0  0  0
    0.7387   18.4276   -2.1448 H   0  0  0  0  0  0  0  0  0  0  0  0
   -1.0544   16.2044   -2.2547 H   0  0  0  0  0  0  0  0  0  0  0  0
    0.2567   16.4726   -3.4002 H   0  0  0  0  0  0  0  0  0  0  0  0
    0.5099   15.0268    0.4639 H   0  0  0  0  0  0  0  0  0  0  0  0
   -1.0042   15.3114   -0.4599 H   0  0  0  0  0  0  0  0  0  0  0  0
   -0.2446   13.6836   -0.4599 H   0  0  0  0  0  0  0  0  0  0  0  0
    1.4985   14.3959   -3.5227 H   0  0  0  0  0  0  0  0  0  0  0  0
   -1.0282   13.9841   -3.2234 H   0  0  0  0  0  0  0  0  0  0  0  0
    0.0372   12.7716   -4.1095 H   0  0  0  0  0  0  0  0  0  0  0  0
   -1.7594   11.7621   -2.4697 H   0  0  0  0  0  0  0  0  0  0  0  0
    1.4441   12.4335   -0.1058 H   0  0  0  0  0  0  0  0  0  0  0  0
    2.2710   10.0339   -1.8538 H   0  0  0  0  0  0  0  0  0  0  0  0
    3.2739   10.8503   -0.5736 H   0  0  0  0  0  0  0  0  0  0  0  0
    2.3000    8.7184    0.2177 H   0  0  0  0  0  0  0  0  0  0  0  0
    1.7061   10.1529    1.1427 H   0  0  0  0  0  0  0  0  0  0  0  0
   -0.1484    8.6924    0.7104 H   0  0  0  0  0  0  0  0  0  0  0  0
   -0.6940    8.2660   -1.5560 H   0  0  0  0  0  0  0  0  0  0  0  0
   -0.6803   10.4769    1.8373 H   0  0  0  0  0  0  0  0  0  0  0  0
   -0.2516   12.0587    1.1020 H   0  0  0  0  0  0  0  0  0  0  0  0
   -1.9593   11.5017    1.1020 H   0  0  0  0  0  0  0  0  0  0  0  0
   -2.6888    9.7384    0.0794 H   0  0  0  0  0  0  0  0  0  0  0  0
   -2.5691   10.7413   -1.4061 H   0  0  0  0  0  0  0  0  0  0  0  0
   -1.9425    9.0579   -1.4061 H   0  0  0  0  0  0  0  0  0  0  0  0
    3.2750   11.2758   -2.9552 H   0  0  0  0  0  0  0  0  0  0  0  0
    1.8238   11.7313   -3.9109 H   0  0  0  0  0  0  0  0  0  0  0  0
    3.2700   12.7968   -3.9109 H   0  0  0  0  0  0  0  0  0  0  0  0
    3.7767   12.8593   -0.7002 H   0  0  0  0  0  0  0  0  0  0  0  0
    3.9631   13.9167   -2.2107 H   0  0  0  0  0  0  0  0  0  0  0  0
    2.4835   14.5911    0.3467 H   0  0  0  0  0  0  0  0  0  0  0  0
    3.9781   15.3526   -0.3269 H   0  0  0  0  0  0  0  0  0  0  0  0
    3.9297   16.7578   -2.3184 H   0  0  0  0  0  0  0  0  0  0  0  0
    3.2330   15.3852   -3.2443 H   0  0  0  0  0  0  0  0  0  0  0  0
    2.4066   16.9802   -3.2443 H   0  0  0  0  0  0  0  0  0  0  0  0
  1  2  1  0
  2  3  1  0
  3  4  1  0
  4  5  1  0
  5  6  1  0
  6  7  1  0
  7  8  1  0
  7  9  1  0
  2 10  1  0
 10 11  1  0
 11 12  1  0
 12 13  1  0
 13 14  1  1
 13 15  1  0
 15 16  1  0
 16 17  1  0
 17 18  2  0
 18 19  1  0
 19 20  1  0
 20 21  1  0
 21 22  1  0
 22 23  1  0
 22 24  1  0
 24 25  1  0
 24 26  1  0
 19 27  1  0
 27 28  1  6
 27 29  1  0
 29 30  1  0
 30 31  1  0
 31 32  1  6
  7  5  1  0
 31 10  1  0
 31 13  1  0
 27 15  1  0
 24 18  1  0
  1 33  1  0
  1 34  1  0
  1 35  1  0
  2 36  1  6
  3 37  1  0
  3 38  1  0
  4 39  1  0
  4 40  1  0
  5 41  1  6
  8 42  1  0
  8 43  1  0
  8 44  1  0
  9 45  1  0
  9 46  1  0
  9 47  1  0
 10 48  1  1
 11 49  1  0
 11 50  1  0
 12 51  1  0
 12 52  1  0
 14 53  1  0
 14 54  1  0
 14 55  1  0
 15 56  1  6
 16 57  1  0
 16 58  1  0
 17 59  1  0
 19 60  1  1
 20 61  1  0
 20 62  1  0
 21 63  1  0
 21 64  1  0
 22 65  1  1
 23 66  1  0
 25 67  1  0
 25 68  1  0
 25 69  1  0
 26 70  1  0
 26 71  1  0
 26 72  1  0
 28 73  1  0
 28 74  1  0
 28 75  1  0
 29 76  1  0
 29 77  1  0
 30 78  1  0
 30 79  1  0
 32 80  1  0
 32 81  1  0
 32 82  1  0
M  END
>  <meeko>  (5) 
{"is_sidechain": [false], "intermolecular_energy": 2.731, "internal_energy": -0.839}

$$$$
EPH_relaxed_0001_pdb2pqr_Repair_68_r2_0001_out
     RDKit          3D

 82 86  0  0  0  0  0  0  0  0999 V2000
   -5.3180    5.6790   -1.5540 C   0  0  0  0  0  0  0  0  0  0  0  0
   -5.5170    7.1820   -1.7700 C   0  0  2  0  0  0  0  0  0  0  0  0
   -5.2180    7.9960   -0.4950 C   0  0  0  0  0  0  0  0  0  0  0  0
   -4.2710    9.1760   -0.7260 C   0  0  0  0  0  0  0  0  0  0  0  0
   -2.8650    8.8450   -0.3250 C   0  0  2  0  0  0  0  0  0  0  0  0
   -2.3450    9.6420    0.7480 O   0  0  0  0  0  0  0  0  0  0  0  0
   -1.6940    9.7890   -0.5250 C   0  0  0  0  0  0  0  0  0  0  0  0
   -1.8760   11.1370   -1.1490 C   0  0  0  0  0  0  0  0  0  0  0  0
   -0.3120    9.2160   -0.5650 C   0  0  0  0  0  0  0  0  0  0  0  0
   -6.9410    7.4560   -2.2410 C   0  0  1  0  0  0  0  0  0  0  0  0
   -7.2680    6.7580   -3.5880 C   0  0  0  0  0  0  0  0  0  0  0  0
   -8.7600    6.3390   -3.5230 C   0  0  0  0  0  0  0  0  0  0  0  0
   -9.3240    7.0940   -2.2970 C   0  0  1  0  0  0  0  0  0  0  0  0
   -9.6210    8.5360   -2.8150 C   0  0  0  0  0  0  0  0  0  0  0  0
  -10.5770    6.4580   -1.6100 C   0  0  2  0  0  0  0  0  0  0  0  0
  -11.8320    6.3690   -2.4960 C   0  0  0  0  0  0  0  0  0  0  0  0
  -12.7440    7.5500   -2.4300 C   0  0  0  0  0  0  0  0  0  0  0  0
  -12.7160    8.5080   -1.4850 C   0  0  0  0  0  0  0  0  0  0  0  0
  -11.7590    8.4080   -0.2900 C   0  0  1  0  0  0  0  0  0  0  0  0
  -12.5280    8.7290    1.0180 C   0  0  0  0  0  0  0  0  0  0  0  0
  -13.2490   10.0720    0.9580 C   0  0  0  0  0  0  0  0  0  0  0  0
  -14.2340   10.1110   -0.2080 C   0  0  2  0  0  0  0  0  0  0  0  0
  -15.2870    9.1760    0.0470 O   0  0  0  0  0  0  0  0  0  0  0  0
  -13.5740    9.7930   -1.5780 C   0  0  0  0  0  0  0  0  0  0  0  0
  -12.6510   10.9650   -1.9950 C   0  0  0  0  0  0  0  0  0  0  0  0
  -14.6990    9.7260   -2.6460 C   0  0  0  0  0  0  0  0  0  0  0  0
  -10.9150    7.0650   -0.1890 C   0  0  1  0  0  0  0  0  0  0  0  0
  -11.7320    5.9800    0.5760 C   0  0  0  0  0  0  0  0  0  0  0  0
   -9.6220    7.3340    0.6700 C   0  0  0  0  0  0  0  0  0  0  0  0
   -8.3820    7.8480   -0.0850 C   0  0  0  0  0  0  0  0  0  0  0  0
   -8.0960    6.9890   -1.3210 C   0  0  2  0  0  0  0  0  0  0  0  0
   -7.7720    5.5370   -0.8290 C   0  0  0  0  0  0  0  0  0  0  0  0
   -5.2896    5.4642   -0.4756 H   0  0  0  0  0  0  0  0  0  0  0  0
   -6.1511    5.1287   -2.0156 H   0  0  0  0  0  0  0  0  0  0  0  0
   -4.3704    5.3645   -2.0156 H   0  0  0  0  0  0  0  0  0  0  0  0
   -4.8022    7.5028   -2.5421 H   0  0  0  0  0  0  0  0  0  0  0  0
   -6.1683    8.3854   -0.1009 H   0  0  0  0  0  0  0  0  0  0  0  0
   -4.7180    7.3160    0.2105 H   0  0  0  0  0  0  0  0  0  0  0  0
   -4.2844    9.4402   -1.7937 H   0  0  0  0  0  0  0  0  0  0  0  0
   -4.6149   10.0180   -0.1073 H   0  0  0  0  0  0  0  0  0  0  0  0
   -3.0135    7.7875   -0.5888 H   0  0  0  0  0  0  0  0  0  0  0  0
   -1.9785   11.8958   -0.3592 H   0  0  0  0  0  0  0  0  0  0  0  0
   -1.0016   11.3732   -1.7732 H   0  0  0  0  0  0  0  0  0  0  0  0
   -2.7817   11.1328   -1.7732 H   0  0  0  0  0  0  0  0  0  0  0  0
    0.0522    9.0650    0.4619 H   0  0  0  0  0  0  0  0  0  0  0  0
   -0.3302    8.2513   -1.0932 H   0  0  0  0  0  0  0  0  0  0  0  0
    0.3578    9.9106   -1.0932 H   0  0  0  0  0  0  0  0  0  0  0  0
   -6.9144    8.5549   -2.2823 H   0  0  0  0  0  0  0  0  0  0  0  0
   -7.1058    7.4537   -4.4245 H   0  0  0  0  0  0  0  0  0  0  0  0
   -6.6187    5.8847   -3.7487 H   0  0  0  0  0  0  0  0  0  0  0  0
   -9.2879    6.6388   -4.4403 H   0  0  0  0  0  0  0  0  0  0  0  0
   -8.8839    5.2495   -3.4353 H   0  0  0  0  0  0  0  0  0  0  0  0
   -9.7602    9.2119   -1.9584 H   0  0  0  0  0  0  0  0  0  0  0  0
   -8.7764    8.8874   -3.4258 H   0  0  0  0  0  0  0  0  0  0  0  0
  -10.5357    8.5250   -3.4258 H   0  0  0  0  0  0  0  0  0  0  0  0
  -10.2536    5.4197   -1.4447 H   0  0  0  0  0  0  0  0  0  0  0  0
  -11.5040    6.2506   -3.5393 H   0  0  0  0  0  0  0  0  0  0  0  0
  -12.4122    5.5146   -2.1173 H   0  0  0  0  0  0  0  0  0  0  0  0
  -13.5028    7.6449   -3.2207 H   0  0  0  0  0  0  0  0  0  0  0  0
  -10.9801    9.1660   -0.4594 H   0  0  0  0  0  0  0  0  0  0  0  0
  -13.2712    7.9373    1.1934 H   0  0  0  0  0  0  0  0  0  0  0  0
  -11.7920    8.7813    1.8338 H   0  0  0  0  0  0  0  0  0  0  0  0
  -13.7979   10.2282    1.8983 H   0  0  0  0  0  0  0  0  0  0  0  0
  -12.5013   10.8657    0.8127 H   0  0  0  0  0  0  0  0  0  0  0  0
  -14.6223   11.1378   -0.2777 H   0  0  0  0  0  0  0  0  0  0  0  0
  -16.1310    9.6430   -0.0770 H   0  0  0  0  0  0  0  0  0  0  0  0
  -12.2598   11.4618   -1.0949 H   0  0  0  0  0  0  0  0  0  0  0  0
  -11.8133   10.5771   -2.5931 H   0  0  0  0  0  0  0  0  0  0  0  0
  -13.2245   11.6884   -2.5931 H   0  0  0  0  0  0  0  0  0  0  0  0
  -15.6768    9.6678   -2.1454 H   0  0  0  0  0  0  0  0  0  0  0  0
  -14.6620   10.6279   -3.2746 H   0  0  0  0  0  0  0  0  0  0  0  0
  -14.5552    8.8348   -3.2746 H   0  0  0  0  0  0  0  0  0  0  0  0
  -11.6180    6.1314    1.6596 H   0  0  0  0  0  0  0  0  0  0  0  0
  -12.7947    6.0618    0.3041 H   0  0  0  0  0  0  0  0  0  0  0  0
  -11.3598    4.9812    0.3041 H   0  0  0  0  0  0  0  0  0  0  0  0
   -9.8799    8.0816    1.4345 H   0  0  0  0  0  0  0  0  0  0  0  0
   -9.3303    6.3506    1.0673 H   0  0  0  0  0  0  0  0  0  0  0  0
   -8.5587    8.8865   -0.4018 H   0  0  0  0  0  0  0  0  0  0  0  0
   -7.5140    7.7927    0.5885 H   0  0  0  0  0  0  0  0  0  0  0  0
   -7.7671    5.5151    0.2708 H   0  0  0  0  0  0  0  0  0  0  0  0
   -8.5373    4.8427   -1.2062 H   0  0  0  0  0  0  0  0  0  0  0  0
   -6.7841    5.2339   -1.2062 H   0  0  0  0  0  0  0  0  0  0  0  0
  1  2  1  0
  2  3  1  0
  3  4  1  0
  4  5  1  0
  5  6  1  0
  6  7  1  0
  7  8  1  0
  7  9  1  0
  2 10  1  0
 10 11  1  0
 11 12  1  0
 12 13  1  0
 13 14  1  6
 13 15  1  0
 15 16  1  0
 16 17  1  0
 17 18  2  0
 18 19  1  0
 19 20  1  0
 20 21  1  0
 21 22  1  0
 22 23  1  0
 22 24  1  0
 24 25  1  0
 24 26  1  0
 19 27  1  0
 27 28  1  1
 27 29  1  0
 29 30  1  0
 30 31  1  0
 31 32  1  1
  7  5  1  0
 31 10  1  0
 31 13  1  0
 27 15  1  0
 24 18  1  0
  1 33  1  0
  1 34  1  0
  1 35  1  0
  2 36  1  6
  3 37  1  0
  3 38  1  0
  4 39  1  0
  4 40  1  0
  5 41  1  1
  8 42  1  0
  8 43  1  0
  8 44  1  0
  9 45  1  0
  9 46  1  0
  9 47  1  0
 10 48  1  6
 11 49  1  0
 11 50  1  0
 12 51  1  0
 12 52  1  0
 14 53  1  0
 14 54  1  0
 14 55  1  0
 15 56  1  1
 16 57  1  0
 16 58  1  0
 17 59  1  0
 19 60  1  6
 20 61  1  0
 20 62  1  0
 21 63  1  0
 21 64  1  0
 22 65  1  6
 23 66  1  0
 25 67  1  0
 25 68  1  0
 25 69  1  0
 26 70  1  0
 26 71  1  0
 26 72  1  0
 28 73  1  0
 28 74  1  0
 28 75  1  0
 29 76  1  0
 29 77  1  0
 30 78  1  0
 30 79  1  0
 32 80  1  0
 32 81  1  0
 32 82  1  0
M  END
>  <meeko>  (6) 
{"is_sidechain": [false], "intermolecular_energy": 2.731, "internal_energy": -0.839}

$$$$
EPH_relaxed_0001_pdb2pqr_Repair_68_r2_0001_out
     RDKit          3D

 82 86  0  0  0  0  0  0  0  0999 V2000
    0.4580    8.8130   -2.3710 C   0  0  0  0  0  0  0  0  0  0  0  0
    1.1970    9.9580   -3.0690 C   0  0  2  0  0  0  0  0  0  0  0  0
    2.6980    9.9800   -2.7150 C   0  0  0  0  0  0  0  0  0  0  0  0
    3.5780   10.5990   -3.8050 C   0  0  0  0  0  0  0  0  0  0  0  0
    4.9760   10.8370   -3.3210 C   0  0  2  0  0  0  0  0  0  0  0  0
    5.5730   12.0520   -3.7910 O   0  0  0  0  0  0  0  0  0  0  0  0
    6.1900   10.8310   -4.2310 C   0  0  0  0  0  0  0  0  0  0  0  0
    6.0610   10.5800   -5.7010 C   0  0  0  0  0  0  0  0  0  0  0  0
    7.5360   10.5840   -3.6270 C   0  0  0  0  0  0  0  0  0  0  0  0
    0.5560   11.2910   -2.7010 C   0  0  1  0  0  0  0  0  0  0  0  0
   -0.8210   11.1200   -2.0060 C   0  0  0  0  0  0  0  0  0  0  0  0
   -0.9390   12.2600   -0.9610 C   0  0  0  0  0  0  0  0  0  0  0  0
    0.2100   13.2340   -1.3150 C   0  0  1  0  0  0  0  0  0  0  0  0
   -0.3410   14.0910   -2.4980 C   0  0  0  0  0  0  0  0  0  0  0  0
    0.7380   14.1310   -0.1490 C   0  0  2  0  0  0  0  0  0  0  0  0
   -0.2940   15.1060    0.4430 C   0  0  0  0  0  0  0  0  0  0  0  0
   -0.3400   16.4540   -0.1980 C   0  0  0  0  0  0  0  0  0  0  0  0
    0.6020   16.9640   -1.0130 C   0  0  0  0  0  0  0  0  0  0  0  0
    1.9040   16.2010   -1.2870 C   0  0  1  0  0  0  0  0  0  0  0  0
    3.1090   17.1700   -1.1570 C   0  0  0  0  0  0  0  0  0  0  0  0
    2.9620   18.4080   -2.0360 C   0  0  0  0  0  0  0  0  0  0  0  0
    1.6850   19.1710   -1.6940 C   0  0  2  0  0  0  0  0  0  0  0  0
    1.8090   19.7100   -0.3750 O   0  0  0  0  0  0  0  0  0  0  0  0
    0.4050   18.2940   -1.7820 C   0  0  0  0  0  0  0  0  0  0  0  0
    0.1040   17.9590   -3.2640 C   0  0  0  0  0  0  0  0  0  0  0  0
   -0.7920   19.1440   -1.2770 C   0  0  0  0  0  0  0  0  0  0  0  0
    2.1080   14.8590   -0.4610 C   0  0  1  0  0  0  0  0  0  0  0  0
    2.7680   15.1770    0.9160 C   0  0  0  0  0  0  0  0  0  0  0  0
    3.1180   13.9290   -1.2330 C   0  0  0  0  0  0  0  0  0  0  0  0
    2.5200   12.9790   -2.2880 C   0  0  0  0  0  0  0  0  0  0  0  0
    1.3290   12.2050   -1.7170 C   0  0  2  0  0  0  0  0  0  0  0  0
    1.8560   11.3160   -0.5390 C   0  0  0  0  0  0  0  0  0  0  0  0
    0.5374    8.9360   -1.2808 H   0  0  0  0  0  0  0  0  0  0  0  0
   -0.6018    8.8272   -2.6654 H   0  0  0  0  0  0  0  0  0  0  0  0
    0.9075    7.8531   -2.6654 H   0  0  0  0  0  0  0  0  0  0  0  0
    1.1151    9.7930   -4.1535 H   0  0  0  0  0  0  0  0  0  0  0  0
    2.8285   10.5622   -1.7909 H   0  0  0  0  0  0  0  0  0  0  0  0
    3.0168    8.9335   -2.5999 H   0  0  0  0  0  0  0  0  0  0  0  0
    3.6107    9.9164   -4.6669 H   0  0  0  0  0  0  0  0  0  0  0  0
    3.1431   11.5694   -4.0864 H   0  0  0  0  0  0  0  0  0  0  0  0
    4.7613   10.3187   -2.3748 H   0  0  0  0  0  0  0  0  0  0  0  0
    5.5638    9.6127   -5.8656 H   0  0  0  0  0  0  0  0  0  0  0  0
    5.4634   11.3820   -6.1589 H   0  0  0  0  0  0  0  0  0  0  0  0
    7.0610   10.5609   -6.1589 H   0  0  0  0  0  0  0  0  0  0  0  0
    7.4540   10.5990   -2.5302 H   0  0  0  0  0  0  0  0  0  0  0  0
    7.9098    9.6023   -3.9533 H   0  0  0  0  0  0  0  0  0  0  0  0
    8.2340   11.3691   -3.9533 H   0  0  0  0  0  0  0  0  0  0  0  0
    0.5180   11.7581   -3.6962 H   0  0  0  0  0  0  0  0  0  0  0  0
   -1.6312   11.1989   -2.7458 H   0  0  0  0  0  0  0  0  0  0  0  0
   -0.9013   10.1337   -1.5256 H   0  0  0  0  0  0  0  0  0  0  0  0
   -1.9138   12.7630   -1.0434 H   0  0  0  0  0  0  0  0  0  0  0  0
   -0.8677   11.8883    0.0718 H   0  0  0  0  0  0  0  0  0  0  0  0
   -0.8954   14.9533   -2.0990 H   0  0  0  0  0  0  0  0  0  0  0  0
    0.4976   14.4475   -3.1142 H   0  0  0  0  0  0  0  0  0  0  0  0
   -1.0134   13.4760   -3.1142 H   0  0  0  0  0  0  0  0  0  0  0  0
    0.9406   13.3941    0.6422 H   0  0  0  0  0  0  0  0  0  0  0  0
   -1.2894   14.6485    0.3439 H   0  0  0  0  0  0  0  0  0  0  0  0
    0.0115   15.2756    1.4860 H   0  0  0  0  0  0  0  0  0  0  0  0
   -1.2173   17.0829    0.0136 H   0  0  0  0  0  0  0  0  0  0  0  0
    1.8299   15.8342   -2.3214 H   0  0  0  0  0  0  0  0  0  0  0  0
    3.1922   17.4903   -0.1080 H   0  0  0  0  0  0  0  0  0  0  0  0
    4.0085   16.6304   -1.4883 H   0  0  0  0  0  0  0  0  0  0  0  0
    3.8285   19.0669   -1.8777 H   0  0  0  0  0  0  0  0  0  0  0  0
    2.9092   18.0882   -3.0871 H   0  0  0  0  0  0  0  0  0  0  0  0
    1.5690   19.9707   -2.4404 H   0  0  0  0  0  0  0  0  0  0  0  0
    2.6300   19.3590    0.0100 H   0  0  0  0  0  0  0  0  0  0  0  0
   -0.6304   17.1416   -3.3133 H   0  0  0  0  0  0  0  0  0  0  0  0
   -0.3037   18.8490   -3.7656 H   0  0  0  0  0  0  0  0  0  0  0  0
    1.0324   17.6485   -3.7656 H   0  0  0  0  0  0  0  0  0  0  0  0
   -0.7996   19.1494   -0.1770 H   0  0  0  0  0  0  0  0  0  0  0  0
   -0.6922   20.1747   -1.6481 H   0  0  0  0  0  0  0  0  0  0  0  0
   -1.7322   18.7101   -1.6481 H   0  0  0  0  0  0  0  0  0  0  0  0
    2.0983   14.8543    1.7268 H   0  0  0  0  0  0  0  0  0  0  0  0
    3.7254   14.6413    0.9961 H   0  0  0  0  0  0  0  0  0  0  0  0
    2.9457   16.2596    0.9961 H   0  0  0  0  0  0  0  0  0  0  0  0
    3.8446   14.5782   -1.7435 H   0  0  0  0  0  0  0  0  0  0  0  0
    3.5486   13.2708   -0.4640 H   0  0  0  0  0  0  0  0  0  0  0  0
    2.1841   13.5686   -3.1538 H   0  0  0  0  0  0  0  0  0  0  0  0
    3.2943   12.2582   -2.5896 H   0  0  0  0  0  0  0  0  0  0  0  0
    1.5818   11.7786    0.4206 H   0  0  0  0  0  0  0  0  0  0  0  0
    1.4055   10.3147   -0.6053 H   0  0  0  0  0  0  0  0  0  0  0  0
    2.9507   11.2307   -0.6053 H   0  0  0  0  0  0  0  0  0  0  0  0
  1  2  1  0
  2  3  1  0
  3  4  1  0
  4  5  1  0
  5  6  1  0
  6  7  1  0
  7  8  1  0
  7  9  1  0
  2 10  1  0
 10 11  1  0
 11 12  1  0
 12 13  1  0
 13 14  1  6
 13 15  1  0
 15 16  1  0
 16 17  1  0
 17 18  2  0
 18 19  1  0
 19 20  1  0
 20 21  1  0
 21 22  1  0
 22 23  1  0
 22 24  1  0
 24 25  1  0
 24 26  1  0
 19 27  1  0
 27 28  1  1
 27 29  1  0
 29 30  1  0
 30 31  1  0
 31 32  1  1
  7  5  1  0
 31 10  1  0
 31 13  1  0
 27 15  1  0
 24 18  1  0
  1 33  1  0
  1 34  1  0
  1 35  1  0
  2 36  1  6
  3 37  1  0
  3 38  1  0
  4 39  1  0
  4 40  1  0
  5 41  1  1
  8 42  1  0
  8 43  1  0
  8 44  1  0
  9 45  1  0
  9 46  1  0
  9 47  1  0
 10 48  1  6
 11 49  1  0
 11 50  1  0
 12 51  1  0
 12 52  1  0
 14 53  1  0
 14 54  1  0
 14 55  1  0
 15 56  1  1
 16 57  1  0
 16 58  1  0
 17 59  1  0
 19 60  1  6
 20 61  1  0
 20 62  1  0
 21 63  1  0
 21 64  1  0
 22 65  1  6
 23 66  1  0
 25 67  1  0
 25 68  1  0
 25 69  1  0
 26 70  1  0
 26 71  1  0
 26 72  1  0
 28 73  1  0
 28 74  1  0
 28 75  1  0
 29 76  1  0
 29 77  1  0
 30 78  1  0
 30 79  1  0
 32 80  1  0
 32 81  1  0
 32 82  1  0
M  END
>  <meeko>  (7) 
{"is_sidechain": [false], "intermolecular_energy": 2.731, "internal_energy": -0.839}

$$$$
EPH_relaxed_0001_pdb2pqr_Repair_68_r2_0001_out
     RDKit          3D

 82 86  0  0  0  0  0  0  0  0999 V2000
    0.1210   10.4190   -3.5670 C   0  0  0  0  0  0  0  0  0  0  0  0
    0.9850   10.1640   -2.3290 C   0  0  2  0  0  0  0  0  0  0  0  0
    0.4520    8.9920   -1.4810 C   0  0  0  0  0  0  0  0  0  0  0  0
   -0.6820    8.2120   -2.1520 C   0  0  0  0  0  0  0  0  0  0  0  0
   -2.0250    8.6340   -1.6380 C   0  0  2  0  0  0  0  0  0  0  0  0
   -2.2380   10.0520   -1.6140 O   0  0  0  0  0  0  0  0  0  0  0  0
   -2.2230    9.3910   -0.3380 C   0  0  0  0  0  0  0  0  0  0  0  0
   -1.0640    9.7690    0.5290 C   0  0  0  0  0  0  0  0  0  0  0  0
   -3.5630    9.3330    0.3260 C   0  0  0  0  0  0  0  0  0  0  0  0
    1.0630   11.4280   -1.4800 C   0  0  1  0  0  0  0  0  0  0  0  0
    2.1260   11.3270   -0.3540 C   0  0  0  0  0  0  0  0  0  0  0  0
    2.7360   12.7420   -0.1870 C   0  0  0  0  0  0  0  0  0  0  0  0
    1.7860   13.6730   -0.9760 C   0  0  1  0  0  0  0  0  0  0  0  0
    0.5890   13.9370   -0.0100 C   0  0  0  0  0  0  0  0  0  0  0  0
    2.4060   15.0070   -1.5050 C   0  0  2  0  0  0  0  0  0  0  0  0
    2.9110   15.9690   -0.4150 C   0  0  0  0  0  0  0  0  0  0  0  0
    1.9070   16.9580    0.0760 C   0  0  0  0  0  0  0  0  0  0  0  0
    0.7450   17.2620   -0.5310 C   0  0  0  0  0  0  0  0  0  0  0  0
    0.3860   16.6530   -1.8930 C   0  0  1  0  0  0  0  0  0  0  0  0
   -0.1400   17.7670   -2.8360 C   0  0  0  0  0  0  0  0  0  0  0  0
   -1.2960   18.5530   -2.2250 C   0  0  0  0  0  0  0  0  0  0  0  0
   -0.8820   19.1910   -0.9020 C   0  0  2  0  0  0  0  0  0  0  0  0
    0.1040   20.1940   -1.1620 O   0  0  0  0  0  0  0  0  0  0  0  0
   -0.3270   18.1660    0.1260 C   0  0  0  0  0  0  0  0  0  0  0  0
   -1.4780   17.2640    0.6350 C   0  0  0  0  0  0  0  0  0  0  0  0
    0.1840   18.9560    1.3610 C   0  0  0  0  0  0  0  0  0  0  0  0
    1.5120   15.7600   -2.5720 C   0  0  1  0  0  0  0  0  0  0  0  0
    2.4750   16.6600   -3.4040 C   0  0  0  0  0  0  0  0  0  0  0  0
    0.8370   14.7690   -3.5930 C   0  0  0  0  0  0  0  0  0  0  0  0
    0.3520   13.4180   -3.0330 C   0  0  0  0  0  0  0  0  0  0  0  0
    1.4470   12.7450   -2.2000 C   0  0  2  0  0  0  0  0  0  0  0  0
    2.6560   12.4470   -3.1510 C   0  0  0  0  0  0  0  0  0  0  0  0
   -0.8902   10.7174   -3.2533 H   0  0  0  0  0  0  0  0  0  0  0  0
    0.5705   11.2228   -4.1686 H   0  0  0  0  0  0  0  0  0  0  0  0
    0.0620    9.5000   -4.1686 H   0  0  0  0  0  0  0  0  0  0  0  0
    1.9909    9.8883   -2.6784 H   0  0  0  0  0  0  0  0  0  0  0  0
    1.2830    8.2981   -1.2865 H   0  0  0  0  0  0  0  0  0  0  0  0
    0.0413    9.4248   -0.5569 H   0  0  0  0  0  0  0  0  0  0  0  0
   -0.6436    8.3897   -3.2369 H   0  0  0  0  0  0  0  0  0  0  0  0
   -0.5468    7.1448   -1.9223 H   0  0  0  0  0  0  0  0  0  0  0  0
   -2.4916    7.7222   -2.0391 H   0  0  0  0  0  0  0  0  0  0  0  0
   -1.3514    9.6753    1.5867 H   0  0  0  0  0  0  0  0  0  0  0  0
   -0.2157    9.1010    0.3189 H   0  0  0  0  0  0  0  0  0  0  0  0
   -0.7727   10.8087    0.3189 H   0  0  0  0  0  0  0  0  0  0  0  0
   -3.4316    9.3387    1.4181 H   0  0  0  0  0  0  0  0  0  0  0  0
   -4.1600   10.2061    0.0240 H   0  0  0  0  0  0  0  0  0  0  0  0
   -4.0823    8.4115    0.0240 H   0  0  0  0  0  0  0  0  0  0  0  0
    0.0213   11.4801   -1.1304 H   0  0  0  0  0  0  0  0  0  0  0  0
    1.6532   11.0050    0.5856 H   0  0  0  0  0  0  0  0  0  0  0  0
    2.9019   10.5898   -0.6082 H   0  0  0  0  0  0  0  0  0  0  0  0
    2.7670   13.0285    0.8746 H   0  0  0  0  0  0  0  0  0  0  0  0
    3.7716   12.7954   -0.5540 H   0  0  0  0  0  0  0  0  0  0  0  0
    0.9346   13.8608    1.0315 H   0  0  0  0  0  0  0  0  0  0  0  0
    0.1878   14.9452   -0.1903 H   0  0  0  0  0  0  0  0  0  0  0  0
   -0.1991   13.1911   -0.1903 H   0  0  0  0  0  0  0  0  0  0  0  0
    3.3046   14.6558   -2.0334 H   0  0  0  0  0  0  0  0  0  0  0  0
    3.2427   15.3664    0.4434 H   0  0  0  0  0  0  0  0  0  0  0  0
    3.7173   16.5572   -0.8774 H   0  0  0  0  0  0  0  0  0  0  0  0
    2.1365   17.4836    1.0147 H   0  0  0  0  0  0  0  0  0  0  0  0
   -0.4120   15.9215   -1.6980 H   0  0  0  0  0  0  0  0  0  0  0  0
    0.6836   18.4629   -3.0534 H   0  0  0  0  0  0  0  0  0  0  0  0
   -0.5123   17.2821   -3.7505 H   0  0  0  0  0  0  0  0  0  0  0  0
   -1.6038   19.3435   -2.9252 H   0  0  0  0  0  0  0  0  0  0  0  0
   -2.1300   17.8612   -2.0356 H   0  0  0  0  0  0  0  0  0  0  0  0
   -1.7846   19.6292   -0.4511 H   0  0  0  0  0  0  0  0  0  0  0  0
   -0.3640   21.0240   -1.3550 H   0  0  0  0  0  0  0  0  0  0  0  0
   -1.4822   17.2607    1.7350 H   0  0  0  0  0  0  0  0  0  0  0  0
   -2.4387   17.6522    0.2658 H   0  0  0  0  0  0  0  0  0  0  0  0
   -1.3307   16.2383    0.2658 H   0  0  0  0  0  0  0  0  0  0  0  0
   -0.1434   18.4499    2.2811 H   0  0  0  0  0  0  0  0  0  0  0  0
    1.2828   19.0011    1.3384 H   0  0  0  0  0  0  0  0  0  0  0  0
   -0.2254   19.9767    1.3384 H   0  0  0  0  0  0  0  0  0  0  0  0
    3.1060   17.2497   -2.7227 H   0  0  0  0  0  0  0  0  0  0  0  0
    3.1126   16.0265   -4.0382 H   0  0  0  0  0  0  0  0  0  0  0  0
    1.8861   17.3389   -4.0382 H   0  0  0  0  0  0  0  0  0  0  0  0
   -0.0342   15.2812   -4.0274 H   0  0  0  0  0  0  0  0  0  0  0  0
    1.6286   14.5145   -4.3131 H   0  0  0  0  0  0  0  0  0  0  0  0
   -0.5302   13.5875   -2.3981 H   0  0  0  0  0  0  0  0  0  0  0  0
    0.0984   12.7593   -3.8767 H   0  0  0  0  0  0  0  0  0  0  0  0
    3.5501   12.2266   -2.5493 H   0  0  0  0  0  0  0  0  0  0  0  0
    2.4184   11.5805   -3.7857 H   0  0  0  0  0  0  0  0  0  0  0  0
    2.8483   13.3246   -3.7857 H   0  0  0  0  0  0  0  0  0  0  0  0
  1  2  1  0
  2  3  1  0
  3  4  1  0
  4  5  1  0
  5  6  1  0
  6  7  1  0
  7  8  1  0
  7  9  1  0
  2 10  1  0
 10 11  1  0
 11 12  1  0
 12 13  1  0
 13 14  1  1
 13 15  1  0
 15 16  1  0
 16 17  1  0
 17 18  2  0
 18 19  1  0
 19 20  1  0
 20 21  1  0
 21 22  1  0
 22 23  1  0
 22 24  1  0
 24 25  1  0
 24 26  1  0
 19 27  1  0
 27 28  1  6
 27 29  1  0
 29 30  1  0
 30 31  1  0
 31 32  1  6
  7  5  1  0
 31 10  1  0
 31 13  1  0
 27 15  1  0
 24 18  1  0
  1 33  1  0
  1 34  1  0
  1 35  1  0
  2 36  1  6
  3 37  1  0
  3 38  1  0
  4 39  1  0
  4 40  1  0
  5 41  1  6
  8 42  1  0
  8 43  1  0
  8 44  1  0
  9 45  1  0
  9 46  1  0
  9 47  1  0
 10 48  1  1
 11 49  1  0
 11 50  1  0
 12 51  1  0
 12 52  1  0
 14 53  1  0
 14 54  1  0
 14 55  1  0
 15 56  1  6
 16 57  1  0
 16 58  1  0
 17 59  1  0
 19 60  1  1
 20 61  1  0
 20 62  1  0
 21 63  1  0
 21 64  1  0
 22 65  1  1
 23 66  1  0
 25 67  1  0
 25 68  1  0
 25 69  1  0
 26 70  1  0
 26 71  1  0
 26 72  1  0
 28 73  1  0
 28 74  1  0
 28 75  1  0
 29 76  1  0
 29 77  1  0
 30 78  1  0
 30 79  1  0
 32 80  1  0
 32 81  1  0
 32 82  1  0
M  END
>  <meeko>  (8) 
{"is_sidechain": [false], "intermolecular_energy": 2.731, "internal_energy": -0.839}

$$$$
EPH_relaxed_0001_pdb2pqr_Repair_68_r2_0001_out
     RDKit          3D

 82 86  0  0  0  0  0  0  0  0999 V2000
    3.5070   18.4060   -2.5030 C   0  0  0  0  0  0  0  0  0  0  0  0
    2.2190   17.6050   -2.7140 C   0  0  2  0  0  0  0  0  0  0  0  0
    0.9660   18.3980   -2.2900 C   0  0  0  0  0  0  0  0  0  0  0  0
    1.1520   19.1960   -0.9970 C   0  0  0  0  0  0  0  0  0  0  0  0
   -0.0780   19.9780   -0.6480 C   0  0  2  0  0  0  0  0  0  0  0  0
   -0.2740   20.1900    0.7570 O   0  0  0  0  0  0  0  0  0  0  0  0
   -1.2630   19.3870    0.0930 C   0  0  0  0  0  0  0  0  0  0  0  0
   -1.2760   17.9550    0.5280 C   0  0  0  0  0  0  0  0  0  0  0  0
   -2.5960   20.0570   -0.0370 C   0  0  0  0  0  0  0  0  0  0  0  0
    2.2910   16.2920   -1.9430 C   0  0  1  0  0  0  0  0  0  0  0  0
    2.6400   16.4980   -0.4450 C   0  0  0  0  0  0  0  0  0  0  0  0
    1.8650   15.4150    0.3480 C   0  0  0  0  0  0  0  0  0  0  0  0
    1.3650   14.4250   -0.7300 C   0  0  1  0  0  0  0  0  0  0  0  0
    2.5910   13.5070   -1.0300 C   0  0  0  0  0  0  0  0  0  0  0  0
    0.0950   13.5900   -0.3660 C   0  0  2  0  0  0  0  0  0  0  0  0
    0.2570   12.6460    0.8390 C   0  0  0  0  0  0  0  0  0  0  0  0
    0.7250   11.2670    0.5100 C   0  0  0  0  0  0  0  0  0  0  0  0
    0.7310   10.7160   -0.7180 C   0  0  0  0  0  0  0  0  0  0  0  0
    0.1430   11.4640   -1.9210 C   0  0  1  0  0  0  0  0  0  0  0  0
   -0.7640   10.5040   -2.7350 C   0  0  0  0  0  0  0  0  0  0  0  0
   -0.0440    9.2220   -3.1410 C   0  0  0  0  0  0  0  0  0  0  0  0
    0.4750    8.4770   -1.9140 C   0  0  2  0  0  0  0  0  0  0  0  0
   -0.6420    8.0070   -1.1520 O   0  0  0  0  0  0  0  0  0  0  0  0
    1.3940    9.3470   -1.0120 C   0  0  0  0  0  0  0  0  0  0  0  0
    2.7400    9.6040   -1.7330 C   0  0  0  0  0  0  0  0  0  0  0  0
    1.7340    8.5230    0.2600 C   0  0  0  0  0  0  0  0  0  0  0  0
   -0.5680   12.8480   -1.5960 C   0  0  1  0  0  0  0  0  0  0  0  0
   -2.0610   12.6030   -1.2180 C   0  0  0  0  0  0  0  0  0  0  0  0
   -0.5790   13.7370   -2.8960 C   0  0  0  0  0  0  0  0  0  0  0  0
    0.6530   14.6300   -3.1380 C   0  0  0  0  0  0  0  0  0  0  0  0
    1.0040   15.4320   -1.8810 C   0  0  2  0  0  0  0  0  0  0  0  0
   -0.2030   16.3810   -1.5670 C   0  0  0  0  0  0  0  0  0  0  0  0
    3.6940   18.5223   -1.4253 H   0  0  0  0  0  0  0  0  0  0  0  0
    4.3504   17.8728   -2.9661 H   0  0  0  0  0  0  0  0  0  0  0  0
    3.4018   19.3982   -2.9661 H   0  0  0  0  0  0  0  0  0  0  0  0
    2.1300   17.3988   -3.7908 H   0  0  0  0  0  0  0  0  0  0  0  0
    0.7092   19.0996   -3.0974 H   0  0  0  0  0  0  0  0  0  0  0  0
    0.1685   17.6638   -2.1031 H   0  0  0  0  0  0  0  0  0  0  0  0
    1.3761   18.4985   -0.1764 H   0  0  0  0  0  0  0  0  0  0  0  0
    1.9790   19.9056   -1.1472 H   0  0  0  0  0  0  0  0  0  0  0  0
   -0.0048   20.5551   -1.5816 H   0  0  0  0  0  0  0  0  0  0  0  0
   -1.2764   17.9056    1.6269 H   0  0  0  0  0  0  0  0  0  0  0  0
   -2.1787   17.4616    0.1384 H   0  0  0  0  0  0  0  0  0  0  0  0
   -0.3824   17.4453    0.1384 H   0  0  0  0  0  0  0  0  0  0  0  0
   -3.0028   20.2615    0.9643 H   0  0  0  0  0  0  0  0  0  0  0  0
   -2.4788   21.0033   -0.5854 H   0  0  0  0  0  0  0  0  0  0  0  0
   -3.2855   19.3983   -0.5854 H   0  0  0  0  0  0  0  0  0  0  0  0
    3.0618   15.7740   -2.5325 H   0  0  0  0  0  0  0  0  0  0  0  0
    3.7224   16.3800   -0.2886 H   0  0  0  0  0  0  0  0  0  0  0  0
    2.3612   17.5079   -0.1099 H   0  0  0  0  0  0  0  0  0  0  0  0
    2.5292   14.9076    1.0631 H   0  0  0  0  0  0  0  0  0  0  0  0
    1.0401   15.8406    0.9383 H   0  0  0  0  0  0  0  0  0  0  0  0
    3.0386   13.1718   -0.0827 H   0  0  0  0  0  0  0  0  0  0  0  0
    2.2609   12.6321   -1.6094 H   0  0  0  0  0  0  0  0  0  0  0  0
    3.3376   14.0700   -1.6094 H   0  0  0  0  0  0  0  0  0  0  0  0
   -0.6128   14.3677   -0.0431 H   0  0  0  0  0  0  0  0  0  0  0  0
    0.9859   13.0969    1.5285 H   0  0  0  0  0  0  0  0  0  0  0  0
   -0.7472   12.5312    1.2730 H   0  0  0  0  0  0  0  0  0  0  0  0
    1.0961   10.6493    1.3411 H   0  0  0  0  0  0  0  0  0  0  0  0
    1.0008   11.7759   -2.5349 H   0  0  0  0  0  0  0  0  0  0  0  0
   -1.6372   10.2386   -2.1209 H   0  0  0  0  0  0  0  0  0  0  0  0
   -1.0606   11.0263   -3.6565 H   0  0  0  0  0  0  0  0  0  0  0  0
   -0.7445    8.5729   -3.6869 H   0  0  0  0  0  0  0  0  0  0  0  0
    0.8117    9.4866   -3.7796 H   0  0  0  0  0  0  0  0  0  0  0  0
    1.0907    7.6394   -2.2735 H   0  0  0  0  0  0  0  0  0  0  0  0
   -1.1640    8.7830   -0.8870 H   0  0  0  0  0  0  0  0  0  0  0  0
    3.5331    9.7554   -0.9859 H   0  0  0  0  0  0  0  0  0  0  0  0
    2.9900    8.7374   -2.3626 H   0  0  0  0  0  0  0  0  0  0  0  0
    2.6531   10.5018   -2.3626 H   0  0  0  0  0  0  0  0  0  0  0  0
    1.4903    9.1136    1.1554 H   0  0  0  0  0  0  0  0  0  0  0  0
    1.1460    7.5934    0.2627 H   0  0  0  0  0  0  0  0  0  0  0  0
    2.8065    8.2785    0.2627 H   0  0  0  0  0  0  0  0  0  0  0  0
   -2.1640   12.5861   -0.1230 H   0  0  0  0  0  0  0  0  0  0  0  0
   -2.6815   13.4113   -1.6322 H   0  0  0  0  0  0  0  0  0  0  0  0
   -2.3906   11.6388   -1.6322 H   0  0  0  0  0  0  0  0  0  0  0  0
   -0.6757   13.0625   -3.7595 H   0  0  0  0  0  0  0  0  0  0  0  0
   -1.4180   14.4352   -2.7598 H   0  0  0  0  0  0  0  0  0  0  0  0
    1.5092   13.9957   -3.4109 H   0  0  0  0  0  0  0  0  0  0  0  0
    0.4215   15.3346   -3.9504 H   0  0  0  0  0  0  0  0  0  0  0  0
   -0.3220   16.4746   -0.4775 H   0  0  0  0  0  0  0  0  0  0  0  0
   -0.0119   17.3733   -2.0016 H   0  0  0  0  0  0  0  0  0  0  0  0
   -1.1222   15.9612   -2.0016 H   0  0  0  0  0  0  0  0  0  0  0  0
  1  2  1  0
  2  3  1  0
  3  4  1  0
  4  5  1  0
  5  6  1  0
  6  7  1  0
  7  8  1  0
  7  9  1  0
  2 10  1  0
 10 11  1  0
 11 12  1  0
 12 13  1  0
 13 14  1  6
 13 15  1  0
 15 16  1  0
 16 17  1  0
 17 18  2  0
 18 19  1  0
 19 20  1  0
 20 21  1  0
 21 22  1  0
 22 23  1  0
 22 24  1  0
 24 25  1  0
 24 26  1  0
 19 27  1  0
 27 28  1  1
 27 29  1  0
 29 30  1  0
 30 31  1  0
 31 32  1  1
  7  5  1  0
 31 10  1  0
 31 13  1  0
 27 15  1  0
 24 18  1  0
  1 33  1  0
  1 34  1  0
  1 35  1  0
  2 36  1  6
  3 37  1  0
  3 38  1  0
  4 39  1  0
  4 40  1  0
  5 41  1  6
  8 42  1  0
  8 43  1  0
  8 44  1  0
  9 45  1  0
  9 46  1  0
  9 47  1  0
 10 48  1  6
 11 49  1  0
 11 50  1  0
 12 51  1  0
 12 52  1  0
 14 53  1  0
 14 54  1  0
 14 55  1  0
 15 56  1  1
 16 57  1  0
 16 58  1  0
 17 59  1  0
 19 60  1  6
 20 61  1  0
 20 62  1  0
 21 63  1  0
 21 64  1  0
 22 65  1  6
 23 66  1  0
 25 67  1  0
 25 68  1  0
 25 69  1  0
 26 70  1  0
 26 71  1  0
 26 72  1  0
 28 73  1  0
 28 74  1  0
 28 75  1  0
 29 76  1  0
 29 77  1  0
 30 78  1  0
 30 79  1  0
 32 80  1  0
 32 81  1  0
 32 82  1  0
M  END
>  <meeko>  (9) 
{"is_sidechain": [false], "intermolecular_energy": 2.731, "internal_energy": -0.839}

$$$$
EPH_relaxed_0001_pdb2pqr_Repair_68_r2_0001_out
     RDKit          3D

 82 86  0  0  0  0  0  0  0  0999 V2000
   -3.7210    7.2400   -3.4500 C   0  0  0  0  0  0  0  0  0  0  0  0
   -3.7260    7.2950   -1.9200 C   0  0  2  0  0  0  0  0  0  0  0  0
   -5.1300    7.0490   -1.3340 C   0  0  0  0  0  0  0  0  0  0  0  0
   -6.2570    7.1700   -2.3640 C   0  0  0  0  0  0  0  0  0  0  0  0
   -7.5780    7.4420   -1.7110 C   0  0  2  0  0  0  0  0  0  0  0  0
   -8.2050    6.2930   -1.1270 O   0  0  0  0  0  0  0  0  0  0  0  0
   -8.8960    6.8990   -2.2310 C   0  0  0  0  0  0  0  0  0  0  0  0
   -8.9570    6.0400   -3.4560 C   0  0  0  0  0  0  0  0  0  0  0  0
  -10.1610    7.5970   -1.8410 C   0  0  0  0  0  0  0  0  0  0  0  0
   -3.1930    8.6430   -1.4470 C   0  0  1  0  0  0  0  0  0  0  0  0
   -3.8180    9.0930   -0.0990 C   0  0  0  0  0  0  0  0  0  0  0  0
   -2.7110    9.8500    0.6770 C   0  0  0  0  0  0  0  0  0  0  0  0
   -1.6010   10.1000   -0.3710 C   0  0  1  0  0  0  0  0  0  0  0  0
   -2.0770   11.3550   -1.1670 C   0  0  0  0  0  0  0  0  0  0  0  0
   -0.1520   10.2860    0.1870 C   0  0  2  0  0  0  0  0  0  0  0  0
    0.0410   11.5030    1.1070 C   0  0  0  0  0  0  0  0  0  0  0  0
    0.4470   12.7650    0.4190 C   0  0  0  0  0  0  0  0  0  0  0  0
    0.9230   12.8520   -0.8370 C   0  0  0  0  0  0  0  0  0  0  0  0
    1.1870   11.5900   -1.6680 C   0  0  1  0  0  0  0  0  0  0  0  0
    2.5790   11.6990   -2.3450 C   0  0  0  0  0  0  0  0  0  0  0  0
    2.7350   12.9790   -3.1610 C   0  0  0  0  0  0  0  0  0  0  0  0
    2.5220   14.2120   -2.2870 C   0  0  2  0  0  0  0  0  0  0  0  0
    3.5870   14.2900   -1.3330 O   0  0  0  0  0  0  0  0  0  0  0  0
    1.1560   14.2090   -1.5450 C   0  0  0  0  0  0  0  0  0  0  0  0
    0.0110   14.4280   -2.5650 C   0  0  0  0  0  0  0  0  0  0  0  0
    1.1280   15.4340   -0.5910 C   0  0  0  0  0  0  0  0  0  0  0  0
    0.9820   10.2070   -0.9140 C   0  0  1  0  0  0  0  0  0  0  0  0
    2.2940    9.8040   -0.1740 C   0  0  0  0  0  0  0  0  0  0  0  0
    0.7070    9.0780   -1.9760 C   0  0  0  0  0  0  0  0  0  0  0  0
   -0.7590    8.8630   -2.3980 C   0  0  0  0  0  0  0  0  0  0  0  0
   -1.6720    8.7500   -1.1730 C   0  0  2  0  0  0  0  0  0  0  0  0
   -1.2310    7.4830   -0.3640 C   0  0  0  0  0  0  0  0  0  0  0  0
   -3.6260    6.1947   -3.7790 H   0  0  0  0  0  0  0  0  0  0  0  0
   -4.6612    7.6616   -3.8351 H   0  0  0  0  0  0  0  0  0  0  0  0
   -2.8723    7.8242   -3.8351 H   0  0  0  0  0  0  0  0  0  0  0  0
   -3.0719    6.4881   -1.5580 H   0  0  0  0  0  0  0  0  0  0  0  0
   -5.1559    6.0350   -0.9084 H   0  0  0  0  0  0  0  0  0  0  0  0
   -5.3027    7.8270   -0.5758 H   0  0  0  0  0  0  0  0  0  0  0  0
   -6.0233    7.9952   -3.0528 H   0  0  0  0  0  0  0  0  0  0  0  0
   -6.3318    6.2147   -2.9041 H   0  0  0  0  0  0  0  0  0  0  0  0
   -7.2570    8.4560   -1.4304 H   0  0  0  0  0  0  0  0  0  0  0  0
   -9.0320    4.9834   -3.1595 H   0  0  0  0  0  0  0  0  0  0  0  0
   -9.8378    6.3164   -4.0542 H   0  0  0  0  0  0  0  0  0  0  0  0
   -8.0460    6.1892   -4.0542 H   0  0  0  0  0  0  0  0  0  0  0  0
  -10.2343    7.6374   -0.7442 H   0  0  0  0  0  0  0  0  0  0  0  0
  -10.1554    8.6197   -2.2461 H   0  0  0  0  0  0  0  0  0  0  0  0
  -11.0232    7.0469   -2.2461 H   0  0  0  0  0  0  0  0  0  0  0  0
   -3.4641    9.2628   -2.3144 H   0  0  0  0  0  0  0  0  0  0  0  0
   -4.6746    9.7583   -0.2821 H   0  0  0  0  0  0  0  0  0  0  0  0
   -4.1820    8.2284    0.4755 H   0  0  0  0  0  0  0  0  0  0  0  0
   -3.0950   10.8027    1.0707 H   0  0  0  0  0  0  0  0  0  0  0  0
   -2.3454    9.2803    1.5440 H   0  0  0  0  0  0  0  0  0  0  0  0
   -2.3764   12.1445   -0.4620 H   0  0  0  0  0  0  0  0  0  0  0  0
   -1.2553   11.7211   -1.8000 H   0  0  0  0  0  0  0  0  0  0  0  0
   -2.9348   11.0841   -1.8000 H   0  0  0  0  0  0  0  0  0  0  0  0
   -0.0321    9.4027    0.8315 H   0  0  0  0  0  0  0  0  0  0  0  0
   -0.9101   11.6902    1.6270 H   0  0  0  0  0  0  0  0  0  0  0  0
    0.8694   11.2450    1.7831 H   0  0  0  0  0  0  0  0  0  0  0  0
    0.3487   13.7022    0.9865 H   0  0  0  0  0  0  0  0  0  0  0  0
    0.3991   11.5605   -2.4350 H   0  0  0  0  0  0  0  0  0  0  0  0
    3.3532   11.6825   -1.5637 H   0  0  0  0  0  0  0  0  0  0  0  0
    2.6817   10.8487   -3.0353 H   0  0  0  0  0  0  0  0  0  0  0  0
    3.7477   13.0118   -3.5893 H   0  0  0  0  0  0  0  0  0  0  0  0
    1.9793   12.9803   -3.9603 H   0  0  0  0  0  0  0  0  0  0  0  0
    2.5167   15.0895   -2.9503 H   0  0  0  0  0  0  0  0  0  0  0  0
    4.4250   14.2580   -1.8250 H   0  0  0  0  0  0  0  0  0  0  0  0
   -0.9308   14.6081   -2.0259 H   0  0  0  0  0  0  0  0  0  0  0  0
    0.2441   15.2978   -3.1967 H   0  0  0  0  0  0  0  0  0  0  0  0
   -0.0934   13.5335   -3.1967 H   0  0  0  0  0  0  0  0  0  0  0  0
    1.1359   15.0863    0.4526 H   0  0  0  0  0  0  0  0  0  0  0  0
    2.0120   16.0622   -0.7749 H   0  0  0  0  0  0  0  0  0  0  0  0
    0.2162   16.0212   -0.7749 H   0  0  0  0  0  0  0  0  0  0  0  0
    2.1320    9.8538    0.9129 H   0  0  0  0  0  0  0  0  0  0  0  0
    2.5740    8.7784   -0.4564 H   0  0  0  0  0  0  0  0  0  0  0  0
    3.1015   10.4955   -0.4564 H   0  0  0  0  0  0  0  0  0  0  0  0
    1.2809    9.3258   -2.8812 H   0  0  0  0  0  0  0  0  0  0  0  0
    1.0049    8.1408   -1.4832 H   0  0  0  0  0  0  0  0  0  0  0  0
   -1.0852    9.7152   -3.0123 H   0  0  0  0  0  0  0  0  0  0  0  0
   -0.8248    7.9268   -2.9717 H   0  0  0  0  0  0  0  0  0  0  0  0
   -1.3038    7.6923    0.7135 H   0  0  0  0  0  0  0  0  0  0  0  0
   -1.8880    6.6383   -0.6187 H   0  0  0  0  0  0  0  0  0  0  0  0
   -0.1915    7.2288   -0.6187 H   0  0  0  0  0  0  0  0  0  0  0  0
  1  2  1  0
  2  3  1  0
  3  4  1  0
  4  5  1  0
  5  6  1  0
  6  7  1  0
  7  8  1  0
  7  9  1  0
  2 10  1  0
 10 11  1  0
 11 12  1  0
 12 13  1  0
 13 14  1  6
 13 15  1  0
 15 16  1  0
 16 17  1  0
 17 18  2  0
 18 19  1  0
 19 20  1  0
 20 21  1  0
 21 22  1  0
 22 23  1  0
 22 24  1  0
 24 25  1  0
 24 26  1  0
 19 27  1  0
 27 28  1  1
 27 29  1  0
 29 30  1  0
 30 31  1  0
 31 32  1  1
  7  5  1  0
 31 10  1  0
 31 13  1  0
 27 15  1  0
 24 18  1  0
  1 33  1  0
  1 34  1  0
  1 35  1  0
  2 36  1  1
  3 37  1  0
  3 38  1  0
  4 39  1  0
  4 40  1  0
  5 41  1  1
  8 42  1  0
  8 43  1  0
  8 44  1  0
  9 45  1  0
  9 46  1  0
  9 47  1  0
 10 48  1  6
 11 49  1  0
 11 50  1  0
 12 51  1  0
 12 52  1  0
 14 53  1  0
 14 54  1  0
 14 55  1  0
 15 56  1  1
 16 57  1  0
 16 58  1  0
 17 59  1  0
 19 60  1  6
 20 61  1  0
 20 62  1  0
 21 63  1  0
 21 64  1  0
 22 65  1  6
 23 66  1  0
 25 67  1  0
 25 68  1  0
 25 69  1  0
 26 70  1  0
 26 71  1  0
 26 72  1  0
 28 73  1  0
 28 74  1  0
 28 75  1  0
 29 76  1  0
 29 77  1  0
 30 78  1  0
 30 79  1  0
 32 80  1  0
 32 81  1  0
 32 82  1  0
M  END
>  <meeko>  (10) 
{"is_sidechain": [false], "intermolecular_energy": 2.731, "internal_energy": -0.839}

$$$$
EPH_relaxed_0001_pdb2pqr_Repair_68_r2_0001_out
     RDKit          3D

 82 86  0  0  0  0  0  0  0  0999 V2000
    0.0740    9.3580   -2.3870 C   0  0  0  0  0  0  0  0  0  0  0  0
    1.1550   10.3560   -2.8110 C   0  0  2  0  0  0  0  0  0  0  0  0
    2.5540    9.7100   -2.8620 C   0  0  0  0  0  0  0  0  0  0  0  0
    3.4970   10.3640   -3.8770 C   0  0  0  0  0  0  0  0  0  0  0  0
    4.8790   10.5310   -3.3220 C   0  0  2  0  0  0  0  0  0  0  0  0
    5.4580   11.8240   -3.5390 O   0  0  0  0  0  0  0  0  0  0  0  0
    6.1110   10.7200   -4.1870 C   0  0  0  0  0  0  0  0  0  0  0  0
    6.0180   10.7500   -5.6800 C   0  0  0  0  0  0  0  0  0  0  0  0
    7.4500   10.3870   -3.6070 C   0  0  0  0  0  0  0  0  0  0  0  0
    1.1650   11.5460   -1.8580 C   0  0  1  0  0  0  0  0  0  0  0  0
    2.2280   11.4040   -0.7360 C   0  0  0  0  0  0  0  0  0  0  0  0
    2.7650   12.8290   -0.4460 C   0  0  0  0  0  0  0  0  0  0  0  0
    1.7710   13.7740   -1.1610 C   0  0  1  0  0  0  0  0  0  0  0  0
    0.5590   13.8950   -0.1850 C   0  0  0  0  0  0  0  0  0  0  0  0
    2.3250   15.1770   -1.5710 C   0  0  2  0  0  0  0  0  0  0  0  0
    2.7760   16.0680   -0.4000 C   0  0  0  0  0  0  0  0  0  0  0  0
    1.7220   16.9610    0.1650 C   0  0  0  0  0  0  0  0  0  0  0  0
    0.5480   17.2550   -0.4240 C   0  0  0  0  0  0  0  0  0  0  0  0
    0.2250   16.7460   -1.8340 C   0  0  1  0  0  0  0  0  0  0  0  0
   -0.3540   17.9080   -2.6840 C   0  0  0  0  0  0  0  0  0  0  0  0
   -1.5510   18.5800   -2.0180 C   0  0  0  0  0  0  0  0  0  0  0  0
   -1.1750   19.1240   -0.6420 C   0  0  2  0  0  0  0  0  0  0  0  0
   -0.2400   20.1940   -0.8100 O   0  0  0  0  0  0  0  0  0  0  0  0
   -0.5710   18.0450    0.2990 C   0  0  0  0  0  0  0  0  0  0  0  0
   -1.6760   17.0460    0.7220 C   0  0  0  0  0  0  0  0  0  0  0  0
   -0.1050   18.7530    1.6000 C   0  0  0  0  0  0  0  0  0  0  0  0
    1.3970   15.9720   -2.5770 C   0  0  1  0  0  0  0  0  0  0  0  0
    2.3160   16.9870   -3.3240 C   0  0  0  0  0  0  0  0  0  0  0  0
    0.7760   15.0380   -3.6830 C   0  0  0  0  0  0  0  0  0  0  0  0
    0.3590   13.6220   -3.2430 C   0  0  0  0  0  0  0  0  0  0  0  0
    1.4840   12.9370   -2.4610 C   0  0  2  0  0  0  0  0  0  0  0  0
    2.7100   12.7810   -3.4250 C   0  0  0  0  0  0  0  0  0  0  0  0
    0.0261    9.3138   -1.2889 H   0  0  0  0  0  0  0  0  0  0  0  0
   -0.8996    9.6815   -2.7837 H   0  0  0  0  0  0  0  0  0  0  0  0
    0.3189    8.3617   -2.7837 H   0  0  0  0  0  0  0  0  0  0  0  0
    0.9115   10.6959   -3.8284 H   0  0  0  0  0  0  0  0  0  0  0  0
    3.0095    9.7885   -1.8638 H   0  0  0  0  0  0  0  0  0  0  0  0
    2.4149    8.6657   -3.1785 H   0  0  0  0  0  0  0  0  0  0  0  0
    3.5477    9.7315   -4.7755 H   0  0  0  0  0  0  0  0  0  0  0  0
    3.1018   11.3616   -4.1190 H   0  0  0  0  0  0  0  0  0  0  0  0
    4.6568    9.8389   -2.4964 H   0  0  0  0  0  0  0  0  0  0  0  0
    5.0103   11.0751   -5.9781 H   0  0  0  0  0  0  0  0  0  0  0  0
    6.7634   11.4533   -6.0798 H   0  0  0  0  0  0  0  0  0  0  0  0
    6.2119    9.7437   -6.0798 H   0  0  0  0  0  0  0  0  0  0  0  0
    7.3880   10.4024   -2.5089 H   0  0  0  0  0  0  0  0  0  0  0  0
    7.7563    9.3853   -3.9429 H   0  0  0  0  0  0  0  0  0  0  0  0
    8.1898   11.1285   -3.9429 H   0  0  0  0  0  0  0  0  0  0  0  0
    0.1207   11.5155   -1.5138 H   0  0  0  0  0  0  0  0  0  0  0  0
    1.7688   10.9807    0.1695 H   0  0  0  0  0  0  0  0  0  0  0  0
    3.0411   10.7308   -1.0451 H   0  0  0  0  0  0  0  0  0  0  0  0
    2.7782   13.0262    0.6361 H   0  0  0  0  0  0  0  0  0  0  0  0
    3.7977   12.9654   -0.7994 H   0  0  0  0  0  0  0  0  0  0  0  0
    0.9196   13.8590    0.8536 H   0  0  0  0  0  0  0  0  0  0  0  0
    0.0409   14.8493   -0.3604 H   0  0  0  0  0  0  0  0  0  0  0  0
   -0.1376   13.0619   -0.3604 H   0  0  0  0  0  0  0  0  0  0  0  0
    3.2421   14.9169   -2.1198 H   0  0  0  0  0  0  0  0  0  0  0  0
    3.1345   15.4125    0.4073 H   0  0  0  0  0  0  0  0  0  0  0  0
    3.5527   16.7331   -0.8055 H   0  0  0  0  0  0  0  0  0  0  0  0
    1.9215   17.4175    1.1457 H   0  0  0  0  0  0  0  0  0  0  0  0
   -0.5353   15.9612   -1.7072 H   0  0  0  0  0  0  0  0  0  0  0  0
    0.4338   18.6607   -2.8354 H   0  0  0  0  0  0  0  0  0  0  0  0
   -0.6978   17.4840   -3.6390 H   0  0  0  0  0  0  0  0  0  0  0  0
   -1.8962   19.4104   -2.6515 H   0  0  0  0  0  0  0  0  0  0  0  0
   -2.3492   17.8332   -1.8944 H   0  0  0  0  0  0  0  0  0  0  0  0
   -2.0999   19.4760   -0.1619 H   0  0  0  0  0  0  0  0  0  0  0  0
    0.6490   19.8380   -0.6420 H   0  0  0  0  0  0  0  0  0  0  0  0
   -1.7275   16.9994    1.8198 H   0  0  0  0  0  0  0  0  0  0  0  0
   -2.6450   17.3807    0.3233 H   0  0  0  0  0  0  0  0  0  0  0  0
   -1.4404   16.0482    0.3233 H   0  0  0  0  0  0  0  0  0  0  0  0
   -0.4727   18.1944    2.4733 H   0  0  0  0  0  0  0  0  0  0  0  0
    0.9941   18.7893    1.6242 H   0  0  0  0  0  0  0  0  0  0  0  0
   -0.5063   19.7769    1.6242 H   0  0  0  0  0  0  0  0  0  0  0  0
    2.8654   17.5938   -2.5892 H   0  0  0  0  0  0  0  0  0  0  0  0
    3.0311   16.4387   -3.9548 H   0  0  0  0  0  0  0  0  0  0  0  0
    1.6996   17.6443   -3.9548 H   0  0  0  0  0  0  0  0  0  0  0  0
   -0.1190   15.5405   -4.0786 H   0  0  0  0  0  0  0  0  0  0  0  0
    1.5816   14.8857   -4.4163 H   0  0  0  0  0  0  0  0  0  0  0  0
   -0.5330   13.6921   -2.6031 H   0  0  0  0  0  0  0  0  0  0  0  0
    0.1426   13.0252   -4.1413 H   0  0  0  0  0  0  0  0  0  0  0  0
    3.6295   12.6640   -2.8328 H   0  0  0  0  0  0  0  0  0  0  0  0
    2.5671   11.8938   -4.0594 H   0  0  0  0  0  0  0  0  0  0  0  0
    2.7938   13.6757   -4.0594 H   0  0  0  0  0  0  0  0  0  0  0  0
  1  2  1  0
  2  3  1  0
  3  4  1  0
  4  5  1  0
  5  6  1  0
  6  7  1  0
  7  8  1  0
  7  9  1  0
  2 10  1  0
 10 11  1  0
 11 12  1  0
 12 13  1  0
 13 14  1  1
 13 15  1  0
 15 16  1  0
 16 17  1  0
 17 18  2  0
 18 19  1  0
 19 20  1  0
 20 21  1  0
 21 22  1  0
 22 23  1  0
 22 24  1  0
 24 25  1  0
 24 26  1  0
 19 27  1  0
 27 28  1  6
 27 29  1  0
 29 30  1  0
 30 31  1  0
 31 32  1  6
  7  5  1  0
 31 10  1  0
 31 13  1  0
 27 15  1  0
 24 18  1  0
  1 33  1  0
  1 34  1  0
  1 35  1  0
  2 36  1  6
  3 37  1  0
  3 38  1  0
  4 39  1  0
  4 40  1  0
  5 41  1  1
  8 42  1  0
  8 43  1  0
  8 44  1  0
  9 45  1  0
  9 46  1  0
  9 47  1  0
 10 48  1  1
 11 49  1  0
 11 50  1  0
 12 51  1  0
 12 52  1  0
 14 53  1  0
 14 54  1  0
 14 55  1  0
 15 56  1  6
 16 57  1  0
 16 58  1  0
 17 59  1  0
 19 60  1  1
 20 61  1  0
 20 62  1  0
 21 63  1  0
 21 64  1  0
 22 65  1  1
 23 66  1  0
 25 67  1  0
 25 68  1  0
 25 69  1  0
 26 70  1  0
 26 71  1  0
 26 72  1  0
 28 73  1  0
 28 74  1  0
 28 75  1  0
 29 76  1  0
 29 77  1  0
 30 78  1  0
 30 79  1  0
 32 80  1  0
 32 81  1  0
 32 82  1  0
M  END
>  <meeko>  (11) 
{"is_sidechain": [false], "intermolecular_energy": 2.731, "internal_energy": -0.839}

$$$$
EPH_relaxed_0001_pdb2pqr_Repair_68_r2_0001_out
     RDKit          3D

 82 86  0  0  0  0  0  0  0  0999 V2000
   -0.9130   16.3810   -5.8730 C   0  0  0  0  0  0  0  0  0  0  0  0
    0.1840   15.6810   -6.6790 C   0  0  2  0  0  0  0  0  0  0  0  0
   -0.2160   15.4830   -8.1550 C   0  0  0  0  0  0  0  0  0  0  0  0
    0.4250   16.4960   -9.1070 C   0  0  0  0  0  0  0  0  0  0  0  0
    1.8340   16.1180   -9.4520 C   0  0  2  0  0  0  0  0  0  0  0  0
    2.3230   16.6800  -10.6760 O   0  0  0  0  0  0  0  0  0  0  0  0
    2.2010   15.2490  -10.6400 C   0  0  0  0  0  0  0  0  0  0  0  0
    1.1540   14.7040  -11.5610 C   0  0  0  0  0  0  0  0  0  0  0  0
    3.5150   14.5320  -10.6250 C   0  0  0  0  0  0  0  0  0  0  0  0
    0.5170   14.3350   -6.0440 C   0  0  1  0  0  0  0  0  0  0  0  0
    1.7500   13.6560   -6.6960 C   0  0  0  0  0  0  0  0  0  0  0  0
    2.4970   12.9040   -5.5650 C   0  0  0  0  0  0  0  0  0  0  0  0
    1.5030   12.8960   -4.3800 C   0  0  1  0  0  0  0  0  0  0  0  0
    0.5220   11.7200   -4.6860 C   0  0  0  0  0  0  0  0  0  0  0  0
    2.1290   12.7680   -2.9530 C   0  0  2  0  0  0  0  0  0  0  0  0
    2.8980   11.4610   -2.6930 C   0  0  0  0  0  0  0  0  0  0  0  0
    2.0830   10.3440   -2.1290 C   0  0  0  0  0  0  0  0  0  0  0  0
    0.8620   10.4670   -1.5780 C   0  0  0  0  0  0  0  0  0  0  0  0
    0.2170   11.8470   -1.3920 C   0  0  1  0  0  0  0  0  0  0  0  0
   -0.3720   11.9550    0.0390 C   0  0  0  0  0  0  0  0  0  0  0  0
   -1.3320   10.8140    0.3640 C   0  0  0  0  0  0  0  0  0  0  0  0
   -0.6380    9.4610    0.2240 C   0  0  2  0  0  0  0  0  0  0  0  0
    0.3670    9.3520    1.2370 O   0  0  0  0  0  0  0  0  0  0  0  0
    0.0030    9.2430   -1.1750 C   0  0  0  0  0  0  0  0  0  0  0  0
   -1.1110    9.0610   -2.2350 C   0  0  0  0  0  0  0  0  0  0  0  0
    0.7890    7.9050   -1.1360 C   0  0  0  0  0  0  0  0  0  0  0  0
    1.1260   13.0940   -1.7730 C   0  0  1  0  0  0  0  0  0  0  0  0
    1.9990   13.5100   -0.5500 C   0  0  0  0  0  0  0  0  0  0  0  0
    0.2010   14.3250   -2.0980 C   0  0  0  0  0  0  0  0  0  0  0  0
   -0.2890   14.4620   -3.5520 C   0  0  0  0  0  0  0  0  0  0  0  0
    0.8760   14.3290   -4.5370 C   0  0  2  0  0  0  0  0  0  0  0  0
    1.8680   15.5120   -4.2680 C   0  0  0  0  0  0  0  0  0  0  0  0
   -0.7154   16.2549   -4.7983 H   0  0  0  0  0  0  0  0  0  0  0  0
   -0.9228   17.4527   -6.1208 H   0  0  0  0  0  0  0  0  0  0  0  0
   -1.8891   15.9384   -6.1208 H   0  0  0  0  0  0  0  0  0  0  0  0
    1.0720   16.3299   -6.6623 H   0  0  0  0  0  0  0  0  0  0  0  0
    0.0898   14.4730   -8.4653 H   0  0  0  0  0  0  0  0  0  0  0  0
   -1.3046   15.6288   -8.2156 H   0  0  0  0  0  0  0  0  0  0  0  0
   -0.1687   16.5411  -10.0320 H   0  0  0  0  0  0  0  0  0  0  0  0
    0.4457   17.4740   -8.6038 H   0  0  0  0  0  0  0  0  0  0  0  0
    2.1040   16.0639   -8.3870 H   0  0  0  0  0  0  0  0  0  0  0  0
    0.3317   14.2760  -10.9689 H   0  0  0  0  0  0  0  0  0  0  0  0
    0.7658   15.5145  -12.1954 H   0  0  0  0  0  0  0  0  0  0  0  0
    1.5952   13.9211  -12.1954 H   0  0  0  0  0  0  0  0  0  0  0  0
    3.8277   14.3614   -9.5843 H   0  0  0  0  0  0  0  0  0  0  0  0
    3.4112   13.5655  -11.1398 H   0  0  0  0  0  0  0  0  0  0  0  0
    4.2716   15.1423  -11.1398 H   0  0  0  0  0  0  0  0  0  0  0  0
   -0.4382   13.8138   -6.2048 H   0  0  0  0  0  0  0  0  0  0  0  0
    1.4257   12.9472   -7.4722 H   0  0  0  0  0  0  0  0  0  0  0  0
    2.4038   14.4003   -7.1741 H   0  0  0  0  0  0  0  0  0  0  0  0
    2.7394   11.8770   -5.8756 H   0  0  0  0  0  0  0  0  0  0  0  0
    3.4524   13.3834   -5.3052 H   0  0  0  0  0  0  0  0  0  0  0  0
    0.1615   11.2879   -3.7409 H   0  0  0  0  0  0  0  0  0  0  0  0
   -0.3329   12.0972   -5.2663 H   0  0  0  0  0  0  0  0  0  0  0  0
    1.0464   10.9466   -5.2663 H   0  0  0  0  0  0  0  0  0  0  0  0
    2.8872   13.5649   -2.9557 H   0  0  0  0  0  0  0  0  0  0  0  0
    3.3249   11.1218   -3.6483 H   0  0  0  0  0  0  0  0  0  0  0  0
    3.6560   11.6995   -1.9323 H   0  0  0  0  0  0  0  0  0  0  0  0
    2.5182    9.3345   -2.1674 H   0  0  0  0  0  0  0  0  0  0  0  0
   -0.5926   11.9066   -2.1343 H   0  0  0  0  0  0  0  0  0  0  0  0
    0.4556   11.9367    0.7633 H   0  0  0  0  0  0  0  0  0  0  0  0
   -0.9394   12.8956    0.0966 H   0  0  0  0  0  0  0  0  0  0  0  0
   -1.6915   10.9291    1.3972 H   0  0  0  0  0  0  0  0  0  0  0  0
   -2.1743   10.8516   -0.3425 H   0  0  0  0  0  0  0  0  0  0  0  0
   -1.4059    8.6822    0.3410 H   0  0  0  0  0  0  0  0  0  0  0  0
    1.2330    9.3920    0.7970 H   0  0  0  0  0  0  0  0  0  0  0  0
   -2.0754    8.9034   -1.7300 H   0  0  0  0  0  0  0  0  0  0  0  0
   -1.1693    9.9615   -2.8640 H   0  0  0  0  0  0  0  0  0  0  0  0
   -0.8796    8.1887   -2.8640 H   0  0  0  0  0  0  0  0  0  0  0  0
    0.9615    7.6114   -0.0900 H   0  0  0  0  0  0  0  0  0  0  0  0
    0.2069    7.1228   -1.6452 H   0  0  0  0  0  0  0  0  0  0  0  0
    1.7557    8.0326   -1.6452 H   0  0  0  0  0  0  0  0  0  0  0  0
    1.4699   13.2579    0.3809 H   0  0  0  0  0  0  0  0  0  0  0  0
    2.9579   12.9720   -0.5840 H   0  0  0  0  0  0  0  0  0  0  0  0
    2.1851   14.5936   -0.5840 H   0  0  0  0  0  0  0  0  0  0  0  0
   -0.6872   14.2531   -1.4531 H   0  0  0  0  0  0  0  0  0  0  0  0
    0.8289   15.2108   -1.9216 H   0  0  0  0  0  0  0  0  0  0  0  0
   -1.0272   13.6732   -3.7589 H   0  0  0  0  0  0  0  0  0  0  0  0
   -0.7430   15.4561   -3.6773 H   0  0  0  0  0  0  0  0  0  0  0  0
    1.9857   15.6524   -3.1834 H   0  0  0  0  0  0  0  0  0  0  0  0
    2.8455   15.2799   -4.7159 H   0  0  0  0  0  0  0  0  0  0  0  0
    1.4691   16.4341   -4.7159 H   0  0  0  0  0  0  0  0  0  0  0  0
  1  2  1  0
  2  3  1  0
  3  4  1  0
  4  5  1  0
  5  6  1  0
  6  7  1  0
  7  8  1  0
  7  9  1  0
  2 10  1  0
 10 11  1  0
 11 12  1  0
 12 13  1  0
 13 14  1  6
 13 15  1  0
 15 16  1  0
 16 17  1  0
 17 18  2  0
 18 19  1  0
 19 20  1  0
 20 21  1  0
 21 22  1  0
 22 23  1  0
 22 24  1  0
 24 25  1  0
 24 26  1  0
 19 27  1  0
 27 28  1  1
 27 29  1  0
 29 30  1  0
 30 31  1  0
 31 32  1  6
  7  5  1  0
 31 10  1  0
 31 13  1  0
 27 15  1  0
 24 18  1  0
  1 33  1  0
  1 34  1  0
  1 35  1  0
  2 36  1  6
  3 37  1  0
  3 38  1  0
  4 39  1  0
  4 40  1  0
  5 41  1  1
  8 42  1  0
  8 43  1  0
  8 44  1  0
  9 45  1  0
  9 46  1  0
  9 47  1  0
 10 48  1  1
 11 49  1  0
 11 50  1  0
 12 51  1  0
 12 52  1  0
 14 53  1  0
 14 54  1  0
 14 55  1  0
 15 56  1  6
 16 57  1  0
 16 58  1  0
 17 59  1  0
 19 60  1  6
 20 61  1  0
 20 62  1  0
 21 63  1  0
 21 64  1  0
 22 65  1  1
 23 66  1  0
 25 67  1  0
 25 68  1  0
 25 69  1  0
 26 70  1  0
 26 71  1  0
 26 72  1  0
 28 73  1  0
 28 74  1  0
 28 75  1  0
 29 76  1  0
 29 77  1  0
 30 78  1  0
 30 79  1  0
 32 80  1  0
 32 81  1  0
 32 82  1  0
M  END
>  <meeko>  (12) 
{"is_sidechain": [false], "intermolecular_energy": 2.731, "internal_energy": -0.839}

$$$$
EPH_relaxed_0001_pdb2pqr_Repair_68_r2_0001_out
     RDKit          3D

 82 86  0  0  0  0  0  0  0  0999 V2000
   -1.9520    7.7740   -2.1150 C   0  0  0  0  0  0  0  0  0  0  0  0
   -2.2220    8.4910   -0.7890 C   0  0  2  0  0  0  0  0  0  0  0  0
   -3.7220    8.5060   -0.4320 C   0  0  0  0  0  0  0  0  0  0  0  0
   -4.5980    7.7310   -1.4200 C   0  0  0  0  0  0  0  0  0  0  0  0
   -5.7590    7.0760   -0.7360 C   0  0  2  0  0  0  0  0  0  0  0  0
   -6.3570    5.9990   -1.4700 O   0  0  0  0  0  0  0  0  0  0  0  0
   -7.1850    7.1530   -1.2490 C   0  0  0  0  0  0  0  0  0  0  0  0
   -7.5250    7.9050   -2.4980 C   0  0  0  0  0  0  0  0  0  0  0  0
   -8.3060    6.9150   -0.2860 C   0  0  0  0  0  0  0  0  0  0  0  0
   -1.6870    9.9170   -0.8510 C   0  0  1  0  0  0  0  0  0  0  0  0
   -1.2430   10.4490    0.5380 C   0  0  0  0  0  0  0  0  0  0  0  0
   -0.0160   11.3650    0.2940 C   0  0  0  0  0  0  0  0  0  0  0  0
    0.0020   11.5950   -1.2350 C   0  0  1  0  0  0  0  0  0  0  0  0
   -1.0480   12.7230   -1.4830 C   0  0  0  0  0  0  0  0  0  0  0  0
    1.3880   11.9490   -1.8650 C   0  0  2  0  0  0  0  0  0  0  0  0
    2.0140   13.2640   -1.3680 C   0  0  0  0  0  0  0  0  0  0  0  0
    1.6590   14.4780   -2.1620 C   0  0  0  0  0  0  0  0  0  0  0  0
    1.1060   14.4760   -3.3890 C   0  0  0  0  0  0  0  0  0  0  0  0
    0.8710   13.1620   -4.1450 C   0  0  1  0  0  0  0  0  0  0  0  0
    1.3640   13.3110   -5.6080 C   0  0  0  0  0  0  0  0  0  0  0  0
    0.7430   14.5110   -6.3160 C   0  0  0  0  0  0  0  0  0  0  0  0
    1.0480   15.8050   -5.5660 C   0  0  2  0  0  0  0  0  0  0  0  0
    2.4530   16.0620   -5.6430 O   0  0  0  0  0  0  0  0  0  0  0  0
    0.6040   15.7690   -4.0770 C   0  0  0  0  0  0  0  0  0  0  0  0
   -0.9430   15.7940   -3.9940 C   0  0  0  0  0  0  0  0  0  0  0  0
    1.0960   17.0770   -3.4000 C   0  0  0  0  0  0  0  0  0  0  0  0
    1.4280   11.8490   -3.4440 C   0  0  1  0  0  0  0  0  0  0  0  0
    2.9200   11.6270   -3.8390 C   0  0  0  0  0  0  0  0  0  0  0  0
    0.6340   10.6010   -3.9850 C   0  0  0  0  0  0  0  0  0  0  0  0
   -0.6660   10.2310   -3.2460 C   0  0  0  0  0  0  0  0  0  0  0  0
   -0.4380   10.1700   -1.7320 C   0  0  2  0  0  0  0  0  0  0  0  0
    0.5970    9.0280   -1.4500 C   0  0  0  0  0  0  0  0  0  0  0  0
   -1.5709    6.7620   -1.9136 H   0  0  0  0  0  0  0  0  0  0  0  0
   -2.8861    7.7060   -2.6919 H   0  0  0  0  0  0  0  0  0  0  0  0
   -1.2051    8.3390   -2.6919 H   0  0  0  0  0  0  0  0  0  0  0  0
   -1.7001    7.9322    0.0018 H   0  0  0  0  0  0  0  0  0  0  0  0
   -3.8459    8.0599    0.5658 H   0  0  0  0  0  0  0  0  0  0  0  0
   -4.0500    9.5554   -0.4665 H   0  0  0  0  0  0  0  0  0  0  0  0
   -4.9794    8.4279   -2.1808 H   0  0  0  0  0  0  0  0  0  0  0  0
   -3.9823    6.9438   -1.8796 H   0  0  0  0  0  0  0  0  0  0  0  0
   -5.3188    7.2751    0.2523 H   0  0  0  0  0  0  0  0  0  0  0  0
   -7.9647    8.8776   -2.2322 H   0  0  0  0  0  0  0  0  0  0  0  0
   -6.6117    8.0650   -3.0898 H   0  0  0  0  0  0  0  0  0  0  0  0
   -8.2484    7.3250   -3.0898 H   0  0  0  0  0  0  0  0  0  0  0  0
   -7.9279    6.9953    0.7439 H   0  0  0  0  0  0  0  0  0  0  0  0
   -9.0934    7.6660   -0.4471 H   0  0  0  0  0  0  0  0  0  0  0  0
   -8.7204    5.9089   -0.4471 H   0  0  0  0  0  0  0  0  0  0  0  0
   -2.5619   10.4239   -1.2840 H   0  0  0  0  0  0  0  0  0  0  0  0
   -2.0583   11.0233    1.0021 H   0  0  0  0  0  0  0  0  0  0  0  0
   -0.9893    9.6207    1.2159 H   0  0  0  0  0  0  0  0  0  0  0  0
   -0.1315   12.3193    0.8288 H   0  0  0  0  0  0  0  0  0  0  0  0
    0.9192   10.9152    0.6590 H   0  0  0  0  0  0  0  0  0  0  0  0
   -1.4069   13.1086   -0.5173 H   0  0  0  0  0  0  0  0  0  0  0  0
   -0.5811   13.5396   -2.0532 H   0  0  0  0  0  0  0  0  0  0  0  0
   -1.8959   12.3157   -2.0532 H   0  0  0  0  0  0  0  0  0  0  0  0
    2.0339   11.1466   -1.4791 H   0  0  0  0  0  0  0  0  0  0  0  0
    1.6844   13.4272   -0.3313 H   0  0  0  0  0  0  0  0  0  0  0  0
    3.1024   13.1410   -1.4692 H   0  0  0  0  0  0  0  0  0  0  0  0
    1.8671   15.4568   -1.7053 H   0  0  0  0  0  0  0  0  0  0  0  0
   -0.2161   12.9947   -4.1326 H   0  0  0  0  0  0  0  0  0  0  0  0
    2.4572   13.4329   -5.6009 H   0  0  0  0  0  0  0  0  0  0  0  0
    1.0606   12.4067   -6.1559 H   0  0  0  0  0  0  0  0  0  0  0  0
    1.1531   14.5800   -7.3344 H   0  0  0  0  0  0  0  0  0  0  0  0
   -0.3478   14.3732   -6.3491 H   0  0  0  0  0  0  0  0  0  0  0  0
    0.4704   16.6087   -6.0461 H   0  0  0  0  0  0  0  0  0  0  0  0
    2.5790   17.0250   -5.5970 H   0  0  0  0  0  0  0  0  0  0  0  0
   -1.2535   15.7990   -2.9388 H   0  0  0  0  0  0  0  0  0  0  0  0
   -1.3224   16.6984   -4.4922 H   0  0  0  0  0  0  0  0  0  0  0  0
   -1.3514   14.9023   -4.4922 H   0  0  0  0  0  0  0  0  0  0  0  0
    1.0530   16.9627   -2.3068 H   0  0  0  0  0  0  0  0  0  0  0  0
    2.1324   17.2813   -3.7068 H   0  0  0  0  0  0  0  0  0  0  0  0
    0.4511   17.9137   -3.7068 H   0  0  0  0  0  0  0  0  0  0  0  0
    3.5307   11.5361   -2.9286 H   0  0  0  0  0  0  0  0  0  0  0  0
    3.0087   10.7058   -4.4335 H   0  0  0  0  0  0  0  0  0  0  0  0
    3.2731   12.4825   -4.4335 H   0  0  0  0  0  0  0  0  0  0  0  0
    0.3744   10.8014   -5.0350 H   0  0  0  0  0  0  0  0  0  0  0  0
    1.3061    9.7438   -3.8317 H   0  0  0  0  0  0  0  0  0  0  0  0
   -1.4323   10.9894   -3.4642 H   0  0  0  0  0  0  0  0  0  0  0  0
   -0.9957    9.2400   -3.5912 H   0  0  0  0  0  0  0  0  0  0  0  0
    0.7139    8.8991   -0.3639 H   0  0  0  0  0  0  0  0  0  0  0  0
    0.2364    8.0885   -1.8941 H   0  0  0  0  0  0  0  0  0  0  0  0
    1.5674    9.2947   -1.8941 H   0  0  0  0  0  0  0  0  0  0  0  0
  1  2  1  0
  2  3  1  0
  3  4  1  0
  4  5  1  0
  5  6  1  0
  6  7  1  0
  7  8  1  0
  7  9  1  0
  2 10  1  0
 10 11  1  0
 11 12  1  0
 12 13  1  0
 13 14  1  1
 13 15  1  0
 15 16  1  0
 16 17  1  0
 17 18  2  0
 18 19  1  0
 19 20  1  0
 20 21  1  0
 21 22  1  0
 22 23  1  0
 22 24  1  0
 24 25  1  0
 24 26  1  0
 19 27  1  0
 27 28  1  6
 27 29  1  0
 29 30  1  0
 30 31  1  0
 31 32  1  6
  7  5  1  0
 31 10  1  0
 31 13  1  0
 27 15  1  0
 24 18  1  0
  1 33  1  0
  1 34  1  0
  1 35  1  0
  2 36  1  1
  3 37  1  0
  3 38  1  0
  4 39  1  0
  4 40  1  0
  5 41  1  1
  8 42  1  0
  8 43  1  0
  8 44  1  0
  9 45  1  0
  9 46  1  0
  9 47  1  0
 10 48  1  6
 11 49  1  0
 11 50  1  0
 12 51  1  0
 12 52  1  0
 14 53  1  0
 14 54  1  0
 14 55  1  0
 15 56  1  1
 16 57  1  0
 16 58  1  0
 17 59  1  0
 19 60  1  6
 20 61  1  0
 20 62  1  0
 21 63  1  0
 21 64  1  0
 22 65  1  6
 23 66  1  0
 25 67  1  0
 25 68  1  0
 25 69  1  0
 26 70  1  0
 26 71  1  0
 26 72  1  0
 28 73  1  0
 28 74  1  0
 28 75  1  0
 29 76  1  0
 29 77  1  0
 30 78  1  0
 30 79  1  0
 32 80  1  0
 32 81  1  0
 32 82  1  0
M  END
>  <meeko>  (13) 
{"is_sidechain": [false], "intermolecular_energy": 2.731, "internal_energy": -0.839}

$$$$
EPH_relaxed_0001_pdb2pqr_Repair_68_r2_0001_out
     RDKit          3D

 82 86  0  0  0  0  0  0  0  0999 V2000
    1.7990   10.7370   -4.8390 C   0  0  0  0  0  0  0  0  0  0  0  0
    1.0140   10.6050   -3.5310 C   0  0  2  0  0  0  0  0  0  0  0  0
   -0.1680    9.6240   -3.6600 C   0  0  0  0  0  0  0  0  0  0  0  0
   -0.1560    8.5040   -2.6150 C   0  0  0  0  0  0  0  0  0  0  0  0
   -0.0060    9.0450   -1.2250 C   0  0  2  0  0  0  0  0  0  0  0  0
   -0.3900    8.1360   -0.1850 O   0  0  0  0  0  0  0  0  0  0  0  0
   -1.1800    9.3300   -0.3070 C   0  0  0  0  0  0  0  0  0  0  0  0
   -2.5900    9.0850   -0.7440 C   0  0  0  0  0  0  0  0  0  0  0  0
   -0.9880   10.2970    0.8190 C   0  0  0  0  0  0  0  0  0  0  0  0
    0.5100   11.9730   -3.0860 C   0  0  1  0  0  0  0  0  0  0  0  0
   -0.9530   11.9310   -2.5700 C   0  0  0  0  0  0  0  0  0  0  0  0
   -1.0520   12.9680   -1.4220 C   0  0  0  0  0  0  0  0  0  0  0  0
    0.2470   13.7990   -1.5330 C   0  0  1  0  0  0  0  0  0  0  0  0
   -0.0360   14.8370   -2.6640 C   0  0  0  0  0  0  0  0  0  0  0  0
    0.7380   14.4940   -0.2220 C   0  0  2  0  0  0  0  0  0  0  0  0
   -0.2250   15.5420    0.3610 C   0  0  0  0  0  0  0  0  0  0  0  0
   -0.0160   16.9390   -0.1230 C   0  0  0  0  0  0  0  0  0  0  0  0
    1.0780   17.3880   -0.7670 C   0  0  0  0  0  0  0  0  0  0  0  0
    2.2950   16.4790   -0.9810 C   0  0  1  0  0  0  0  0  0  0  0  0
    3.5890   17.2500   -0.6090 C   0  0  0  0  0  0  0  0  0  0  0  0
    3.7130   18.5760   -1.3520 C   0  0  0  0  0  0  0  0  0  0  0  0
    2.5130   19.4760   -1.0680 C   0  0  2  0  0  0  0  0  0  0  0  0
    2.5410   19.8600    0.3100 O   0  0  0  0  0  0  0  0  0  0  0  0
    1.1510   18.8020   -1.3950 C   0  0  0  0  0  0  0  0  0  0  0  0
    0.9960   18.6600   -2.9290 C   0  0  0  0  0  0  0  0  0  0  0  0
    0.0210   19.7590   -0.9310 C   0  0  0  0  0  0  0  0  0  0  0  0
    2.2190   15.0470   -0.2960 C   0  0  1  0  0  0  0  0  0  0  0  0
    2.7380   15.1310    1.1720 C   0  0  0  0  0  0  0  0  0  0  0  0
    3.1880   14.0630   -1.0530 C   0  0  0  0  0  0  0  0  0  0  0  0
    2.6080   13.3170   -2.2700 C   0  0  0  0  0  0  0  0  0  0  0  0
    1.2650   12.6660   -1.9250 C   0  0  2  0  0  0  0  0  0  0  0  0
    1.5230   11.6010   -0.8060 C   0  0  0  0  0  0  0  0  0  0  0  0
    2.8606   10.9155   -4.6131 H   0  0  0  0  0  0  0  0  0  0  0  0
    1.6991    9.8094   -5.4218 H   0  0  0  0  0  0  0  0  0  0  0  0
    1.4012   11.5809   -5.4218 H   0  0  0  0  0  0  0  0  0  0  0  0
    1.6998   10.1978   -2.7734 H   0  0  0  0  0  0  0  0  0  0  0  0
   -1.1038   10.1915   -3.5500 H   0  0  0  0  0  0  0  0  0  0  0  0
   -0.0813    9.1443   -4.6461 H   0  0  0  0  0  0  0  0  0  0  0  0
   -1.1014    7.9454   -2.6801 H   0  0  0  0  0  0  0  0  0  0  0  0
    0.7034    7.8496   -2.8232 H   0  0  0  0  0  0  0  0  0  0  0  0
    0.8570    9.6551   -1.5298 H   0  0  0  0  0  0  0  0  0  0  0  0
   -3.2339    8.9731    0.1408 H   0  0  0  0  0  0  0  0  0  0  0  0
   -2.9401    9.9358   -1.3470 H   0  0  0  0  0  0  0  0  0  0  0  0
   -2.6325    8.1660   -1.3470 H   0  0  0  0  0  0  0  0  0  0  0  0
   -1.0929    9.7686    1.7780 H   0  0  0  0  0  0  0  0  0  0  0  0
    0.0160   10.7417    0.7533 H   0  0  0  0  0  0  0  0  0  0  0  0
   -1.7459   11.0915    0.7533 H   0  0  0  0  0  0  0  0  0  0  0  0
    0.6571   12.5364   -4.0193 H   0  0  0  0  0  0  0  0  0  0  0  0
   -1.6483   12.1954   -3.3804 H   0  0  0  0  0  0  0  0  0  0  0  0
   -1.2185   10.9237   -2.2165 H   0  0  0  0  0  0  0  0  0  0  0  0
   -1.9357   13.6096   -1.5536 H   0  0  0  0  0  0  0  0  0  0  0  0
   -1.1584   12.4904   -0.4368 H   0  0  0  0  0  0  0  0  0  0  0  0
   -0.3001   15.8058   -2.2149 H   0  0  0  0  0  0  0  0  0  0  0  0
    0.8629   14.9546   -3.2871 H   0  0  0  0  0  0  0  0  0  0  0  0
   -0.8702   14.4821   -3.2871 H   0  0  0  0  0  0  0  0  0  0  0  0
    0.7444   13.6617    0.4972 H   0  0  0  0  0  0  0  0  0  0  0  0
   -1.2511   15.2423    0.1016 H   0  0  0  0  0  0  0  0  0  0  0  0
   -0.0327   15.5630    1.4439 H   0  0  0  0  0  0  0  0  0  0  0  0
   -0.8238   17.6623    0.0621 H   0  0  0  0  0  0  0  0  0  0  0  0
    2.3045   16.2299   -2.0524 H   0  0  0  0  0  0  0  0  0  0  0  0
    3.5812   17.4510    0.4724 H   0  0  0  0  0  0  0  0  0  0  0  0
    4.4459   16.6237   -0.8979 H   0  0  0  0  0  0  0  0  0  0  0  0
    4.6310   19.0867   -1.0258 H   0  0  0  0  0  0  0  0  0  0  0  0
    3.7495   18.3707   -2.4321 H   0  0  0  0  0  0  0  0  0  0  0  0
    2.5951   20.3532   -1.7267 H   0  0  0  0  0  0  0  0  0  0  0  0
    3.2290   19.3320    0.7490 H   0  0  0  0  0  0  0  0  0  0  0  0
    0.2017   17.9323   -3.1515 H   0  0  0  0  0  0  0  0  0  0  0  0
    0.7314   19.6357   -3.3627 H   0  0  0  0  0  0  0  0  0  0  0  0
    1.9448   18.3112   -3.3627 H   0  0  0  0  0  0  0  0  0  0  0  0
   -0.0094   19.7847    0.1683 H   0  0  0  0  0  0  0  0  0  0  0  0
    0.2161   20.7707   -1.3162 H   0  0  0  0  0  0  0  0  0  0  0  0
   -0.9448   19.4000   -1.3162 H   0  0  0  0  0  0  0  0  0  0  0  0
    1.8962   14.9948    1.8669 H   0  0  0  0  0  0  0  0  0  0  0  0
    3.4854   14.3421    1.3424 H   0  0  0  0  0  0  0  0  0  0  0  0
    3.1985   16.1154    1.3424 H   0  0  0  0  0  0  0  0  0  0  0  0
    4.0512   14.6488   -1.4020 H   0  0  0  0  0  0  0  0  0  0  0  0
    3.4296   13.2774   -0.3219 H   0  0  0  0  0  0  0  0  0  0  0  0
    2.4606   14.0315   -3.0933 H   0  0  0  0  0  0  0  0  0  0  0  0
    3.3144   12.5278   -2.5669 H   0  0  0  0  0  0  0  0  0  0  0  0
    1.4089   12.0718    0.1816 H   0  0  0  0  0  0  0  0  0  0  0  0
    0.7977   10.7801   -0.9068 H   0  0  0  0  0  0  0  0  0  0  0  0
    2.5435   11.2031   -0.9068 H   0  0  0  0  0  0  0  0  0  0  0  0
  1  2  1  0
  2  3  1  0
  3  4  1  0
  4  5  1  0
  5  6  1  0
  6  7  1  0
  7  8  1  0
  7  9  1  0
  2 10  1  0
 10 11  1  0
 11 12  1  0
 12 13  1  0
 13 14  1  6
 13 15  1  0
 15 16  1  0
 16 17  1  0
 17 18  2  0
 18 19  1  0
 19 20  1  0
 20 21  1  0
 21 22  1  0
 22 23  1  0
 22 24  1  0
 24 25  1  0
 24 26  1  0
 19 27  1  0
 27 28  1  1
 27 29  1  0
 29 30  1  0
 30 31  1  0
 31 32  1  1
  7  5  1  0
 31 10  1  0
 31 13  1  0
 27 15  1  0
 24 18  1  0
  1 33  1  0
  1 34  1  0
  1 35  1  0
  2 36  1  1
  3 37  1  0
  3 38  1  0
  4 39  1  0
  4 40  1  0
  5 41  1  1
  8 42  1  0
  8 43  1  0
  8 44  1  0
  9 45  1  0
  9 46  1  0
  9 47  1  0
 10 48  1  6
 11 49  1  0
 11 50  1  0
 12 51  1  0
 12 52  1  0
 14 53  1  0
 14 54  1  0
 14 55  1  0
 15 56  1  1
 16 57  1  0
 16 58  1  0
 17 59  1  0
 19 60  1  6
 20 61  1  0
 20 62  1  0
 21 63  1  0
 21 64  1  0
 22 65  1  6
 23 66  1  0
 25 67  1  0
 25 68  1  0
 25 69  1  0
 26 70  1  0
 26 71  1  0
 26 72  1  0
 28 73  1  0
 28 74  1  0
 28 75  1  0
 29 76  1  0
 29 77  1  0
 30 78  1  0
 30 79  1  0
 32 80  1  0
 32 81  1  0
 32 82  1  0
M  END
>  <meeko>  (14) 
{"is_sidechain": [false], "intermolecular_energy": 2.731, "internal_energy": -0.839}

$$$$
EPH_relaxed_0001_pdb2pqr_Repair_68_r2_0001_out
     RDKit          3D

 82 86  0  0  0  0  0  0  0  0999 V2000
    0.8280    9.4050   -0.1600 C   0  0  0  0  0  0  0  0  0  0  0  0
   -0.3870   10.3370   -0.1240 C   0  0  2  0  0  0  0  0  0  0  0  0
   -1.1060   10.4050   -1.4860 C   0  0  0  0  0  0  0  0  0  0  0  0
   -0.3450    9.7120   -2.6200 C   0  0  0  0  0  0  0  0  0  0  0  0
   -0.1560   10.6200   -3.7970 C   0  0  2  0  0  0  0  0  0  0  0  0
    0.4830   10.0110   -4.9270 O   0  0  0  0  0  0  0  0  0  0  0  0
    1.2030   11.0790   -4.2900 C   0  0  0  0  0  0  0  0  0  0  0  0
    2.4660   10.6440   -3.6150 C   0  0  0  0  0  0  0  0  0  0  0  0
    1.2820   12.3280   -5.1130 C   0  0  0  0  0  0  0  0  0  0  0  0
    0.0430   11.7340    0.3080 C   0  0  1  0  0  0  0  0  0  0  0  0
    1.1500   11.7090    1.3960 C   0  0  0  0  0  0  0  0  0  0  0  0
    2.0720   12.9250    1.1240 C   0  0  0  0  0  0  0  0  0  0  0  0
    1.2870   13.7900    0.1100 C   0  0  1  0  0  0  0  0  0  0  0  0
    0.2670   14.5960    0.9740 C   0  0  0  0  0  0  0  0  0  0  0  0
    2.1400   14.7310   -0.8020 C   0  0  2  0  0  0  0  0  0  0  0  0
    2.9380   15.8140   -0.0570 C   0  0  0  0  0  0  0  0  0  0  0  0
    2.2260   17.1120    0.1350 C   0  0  0  0  0  0  0  0  0  0  0  0
    1.1120   17.4970   -0.5150 C   0  0  0  0  0  0  0  0  0  0  0  0
    0.5100   16.6290   -1.6280 C   0  0  1  0  0  0  0  0  0  0  0  0
    0.1660   17.5190   -2.8500 C   0  0  0  0  0  0  0  0  0  0  0  0
   -0.7300   18.6980   -2.4810 C   0  0  0  0  0  0  0  0  0  0  0  0
   -0.0720   19.5700   -1.4150 C   0  0  2  0  0  0  0  0  0  0  0  0
    1.0860   20.1930   -1.9790 O   0  0  0  0  0  0  0  0  0  0  0  0
    0.3290   18.7780   -0.1380 C   0  0  0  0  0  0  0  0  0  0  0  0
   -0.9450   18.3600    0.6360 C   0  0  0  0  0  0  0  0  0  0  0  0
    1.1080   19.7430    0.7960 C   0  0  0  0  0  0  0  0  0  0  0  0
    1.3470   15.3380   -2.0290 C   0  0  1  0  0  0  0  0  0  0  0  0
    2.4100   15.7080   -3.1080 C   0  0  0  0  0  0  0  0  0  0  0  0
    0.3830   14.2880   -2.6980 C   0  0  0  0  0  0  0  0  0  0  0  0
   -0.3400   13.3090   -1.7530 C   0  0  0  0  0  0  0  0  0  0  0  0
    0.6460   12.6610   -0.7770 C   0  0  2  0  0  0  0  0  0  0  0  0
    1.6720   11.8250   -1.6160 C   0  0  0  0  0  0  0  0  0  0  0  0
    1.1382    9.1671    0.8682 H   0  0  0  0  0  0  0  0  0  0  0  0
    0.5625    8.4767   -0.6870 H   0  0  0  0  0  0  0  0  0  0  0  0
    1.6558    9.9019   -0.6870 H   0  0  0  0  0  0  0  0  0  0  0  0
   -1.0996    9.9249    0.6057 H   0  0  0  0  0  0  0  0  0  0  0  0
   -2.0899    9.9240   -1.3835 H   0  0  0  0  0  0  0  0  0  0  0  0
   -1.1844   11.4687   -1.7550 H   0  0  0  0  0  0  0  0  0  0  0  0
    0.6422    9.4002   -2.2483 H   0  0  0  0  0  0  0  0  0  0  0  0
   -0.9351    8.8437   -2.9483 H   0  0  0  0  0  0  0  0  0  0  0  0
   -1.0754   11.1707   -3.5492 H   0  0  0  0  0  0  0  0  0  0  0  0
    2.3332   10.6897   -2.5240 H   0  0  0  0  0  0  0  0  0  0  0  0
    2.7041    9.6121   -3.9124 H   0  0  0  0  0  0  0  0  0  0  0  0
    3.2890   11.3105   -3.9124 H   0  0  0  0  0  0  0  0  0  0  0  0
    1.3373   13.2024   -4.4479 H   0  0  0  0  0  0  0  0  0  0  0  0
    2.1797   12.2927   -5.7477 H   0  0  0  0  0  0  0  0  0  0  0  0
    0.3870   12.4061   -5.7477 H   0  0  0  0  0  0  0  0  0  0  0  0
   -0.9273   12.1295    0.6427 H   0  0  0  0  0  0  0  0  0  0  0  0
    0.6999   11.7912    2.3963 H   0  0  0  0  0  0  0  0  0  0  0  0
    1.7175   10.7673    1.3605 H   0  0  0  0  0  0  0  0  0  0  0  0
    2.2581   13.4865    2.0514 H   0  0  0  0  0  0  0  0  0  0  0  0
    3.0579   12.6237    0.7404 H   0  0  0  0  0  0  0  0  0  0  0  0
    0.4778   14.4294    2.0407 H   0  0  0  0  0  0  0  0  0  0  0  0
    0.3590   15.6680    0.7451 H   0  0  0  0  0  0  0  0  0  0  0  0
   -0.7546   14.2586    0.7451 H   0  0  0  0  0  0  0  0  0  0  0  0
    2.8894   14.0408   -1.2168 H   0  0  0  0  0  0  0  0  0  0  0  0
    3.2004   15.4202    0.9360 H   0  0  0  0  0  0  0  0  0  0  0  0
    3.8114   16.0364   -0.6877 H   0  0  0  0  0  0  0  0  0  0  0  0
    2.6476   17.8134    0.8701 H   0  0  0  0  0  0  0  0  0  0  0  0
   -0.4113   16.1957   -1.2115 H   0  0  0  0  0  0  0  0  0  0  0  0
    1.1019   17.9076   -3.2779 H   0  0  0  0  0  0  0  0  0  0  0  0
   -0.3817   16.8966   -3.5730 H   0  0  0  0  0  0  0  0  0  0  0  0
   -0.9143   19.3052   -3.3795 H   0  0  0  0  0  0  0  0  0  0  0  0
   -1.6770   18.3075   -2.0800 H   0  0  0  0  0  0  0  0  0  0  0  0
   -0.8118   20.3203   -1.0992 H   0  0  0  0  0  0  0  0  0  0  0  0
    1.6510   20.4840   -1.2430 H   0  0  0  0  0  0  0  0  0  0  0  0
   -0.7541   18.4226    1.7175 H   0  0  0  0  0  0  0  0  0  0  0  0
   -1.7730   19.0336    0.3702 H   0  0  0  0  0  0  0  0  0  0  0  0
   -1.2131   17.3268    0.3702 H   0  0  0  0  0  0  0  0  0  0  0  0
    0.9001   19.4854    1.8450 H   0  0  0  0  0  0  0  0  0  0  0  0
    2.1868   19.6495    0.6024 H   0  0  0  0  0  0  0  0  0  0  0  0
    0.7891   20.7778    0.6024 H   0  0  0  0  0  0  0  0  0  0  0  0
    3.3378   16.0309   -2.6131 H   0  0  0  0  0  0  0  0  0  0  0  0
    2.6163   14.8288   -3.7361 H   0  0  0  0  0  0  0  0  0  0  0  0
    2.0258   16.5253   -3.7361 H   0  0  0  0  0  0  0  0  0  0  0  0
   -0.3866   14.8472   -3.2503 H   0  0  0  0  0  0  0  0  0  0  0  0
    1.0325   13.6581   -3.3235 H   0  0  0  0  0  0  0  0  0  0  0  0
   -1.1036   13.8576   -1.1820 H   0  0  0  0  0  0  0  0  0  0  0  0
   -0.8065   12.5174   -2.3578 H   0  0  0  0  0  0  0  0  0  0  0  0
    2.3425   11.2786   -0.9364 H   0  0  0  0  0  0  0  0  0  0  0  0
    1.1295   11.1085   -2.2503 H   0  0  0  0  0  0  0  0  0  0  0  0
    2.2642   12.5010   -2.2503 H   0  0  0  0  0  0  0  0  0  0  0  0
  1  2  1  0
  2  3  1  0
  3  4  1  0
  4  5  1  0
  5  6  1  0
  6  7  1  0
  7  8  1  0
  7  9  1  0
  2 10  1  0
 10 11  1  0
 11 12  1  0
 12 13  1  0
 13 14  1  1
 13 15  1  0
 15 16  1  0
 16 17  1  0
 17 18  2  0
 18 19  1  0
 19 20  1  0
 20 21  1  0
 21 22  1  0
 22 23  1  0
 22 24  1  0
 24 25  1  0
 24 26  1  0
 19 27  1  0
 27 28  1  6
 27 29  1  0
 29 30  1  0
 30 31  1  0
 31 32  1  6
  7  5  1  0
 31 10  1  0
 31 13  1  0
 27 15  1  0
 24 18  1  0
  1 33  1  0
  1 34  1  0
  1 35  1  0
  2 36  1  1
  3 37  1  0
  3 38  1  0
  4 39  1  0
  4 40  1  0
  5 41  1  6
  8 42  1  0
  8 43  1  0
  8 44  1  0
  9 45  1  0
  9 46  1  0
  9 47  1  0
 10 48  1  1
 11 49  1  0
 11 50  1  0
 12 51  1  0
 12 52  1  0
 14 53  1  0
 14 54  1  0
 14 55  1  0
 15 56  1  6
 16 57  1  0
 16 58  1  0
 17 59  1  0
 19 60  1  1
 20 61  1  0
 20 62  1  0
 21 63  1  0
 21 64  1  0
 22 65  1  1
 23 66  1  0
 25 67  1  0
 25 68  1  0
 25 69  1  0
 26 70  1  0
 26 71  1  0
 26 72  1  0
 28 73  1  0
 28 74  1  0
 28 75  1  0
 29 76  1  0
 29 77  1  0
 30 78  1  0
 30 79  1  0
 32 80  1  0
 32 81  1  0
 32 82  1  0
M  END
>  <meeko>  (15) 
{"is_sidechain": [false], "intermolecular_energy": 2.731, "internal_energy": -0.839}

$$$$
EPH_relaxed_0001_pdb2pqr_Repair_68_r2_0001_out
     RDKit          3D

 82 86  0  0  0  0  0  0  0  0999 V2000
   -1.7130   14.8200    0.4210 C   0  0  0  0  0  0  0  0  0  0  0  0
   -0.3600   15.5180    0.2570 C   0  0  2  0  0  0  0  0  0  0  0  0
   -0.3790   16.5610   -0.8790 C   0  0  0  0  0  0  0  0  0  0  0  0
   -0.0250   17.9780   -0.4190 C   0  0  0  0  0  0  0  0  0  0  0  0
    1.4170   18.0890   -0.0260 C   0  0  2  0  0  0  0  0  0  0  0  0
    2.0620   19.2960   -0.4540 O   0  0  0  0  0  0  0  0  0  0  0  0
    2.5600   18.0750   -1.0240 C   0  0  0  0  0  0  0  0  0  0  0  0
    2.3100   17.9440   -2.4940 C   0  0  0  0  0  0  0  0  0  0  0  0
    3.9260   17.6970   -0.5430 C   0  0  0  0  0  0  0  0  0  0  0  0
    0.7300   14.4840   -0.0040 C   0  0  1  0  0  0  0  0  0  0  0  0
    0.8580   13.4500    1.1460 C   0  0  0  0  0  0  0  0  0  0  0  0
    1.2330   12.0960    0.4900 C   0  0  0  0  0  0  0  0  0  0  0  0
    1.6300   12.4620   -0.9600 C   0  0  1  0  0  0  0  0  0  0  0  0
    3.1050   12.9630   -0.8570 C   0  0  0  0  0  0  0  0  0  0  0  0
    1.4800   11.3270   -2.0250 C   0  0  2  0  0  0  0  0  0  0  0  0
    2.3610   10.0890   -1.7880 C   0  0  0  0  0  0  0  0  0  0  0  0
    3.7070   10.1310   -2.4340 C   0  0  0  0  0  0  0  0  0  0  0  0
    4.0830   10.9870   -3.4030 C   0  0  0  0  0  0  0  0  0  0  0  0
    3.0800   11.9730   -4.0160 C   0  0  1  0  0  0  0  0  0  0  0  0
    3.2060   11.9460   -5.5620 C   0  0  0  0  0  0  0  0  0  0  0  0
    4.6340   12.1960   -6.0370 C   0  0  0  0  0  0  0  0  0  0  0  0
    5.5910   11.1600   -5.4530 C   0  0  2  0  0  0  0  0  0  0  0  0
    5.2750    9.8780   -6.0030 O   0  0  0  0  0  0  0  0  0  0  0  0
    5.5450   11.0890   -3.9010 C   0  0  0  0  0  0  0  0  0  0  0  0
    6.1740   12.3720   -3.3020 C   0  0  0  0  0  0  0  0  0  0  0  0
    6.4510    9.9110   -3.4500 C   0  0  0  0  0  0  0  0  0  0  0  0
    1.5760   11.8280   -3.5230 C   0  0  1  0  0  0  0  0  0  0  0  0
    0.8300   10.7720   -4.3940 C   0  0  0  0  0  0  0  0  0  0  0  0
    0.8280   13.1960   -3.7460 C   0  0  0  0  0  0  0  0  0  0  0  0
    0.9150   14.2290   -2.6070 C   0  0  0  0  0  0  0  0  0  0  0  0
    0.5750   13.5880   -1.2580 C   0  0  2  0  0  0  0  0  0  0  0  0
   -0.9100   13.0940   -1.3240 C   0  0  0  0  0  0  0  0  0  0  0  0
   -1.9383   14.7038    1.4914 H   0  0  0  0  0  0  0  0  0  0  0  0
   -2.4981   15.4256   -0.0553 H   0  0  0  0  0  0  0  0  0  0  0  0
   -1.6746   13.8292   -0.0553 H   0  0  0  0  0  0  0  0  0  0  0  0
   -0.1480   16.0537    1.1941 H   0  0  0  0  0  0  0  0  0  0  0  0
    0.3473   16.2530   -1.6455 H   0  0  0  0  0  0  0  0  0  0  0  0
   -1.4080   16.5962   -1.2662 H   0  0  0  0  0  0  0  0  0  0  0  0
   -0.2254   18.6804   -1.2415 H   0  0  0  0  0  0  0  0  0  0  0  0
   -0.6398   18.2164    0.4615 H   0  0  0  0  0  0  0  0  0  0  0  0
    1.2349   17.5157    0.8950 H   0  0  0  0  0  0  0  0  0  0  0  0
    1.3466   17.4392   -2.6585 H   0  0  0  0  0  0  0  0  0  0  0  0
    2.2830   18.9438   -2.9519 H   0  0  0  0  0  0  0  0  0  0  0  0
    3.1167   17.3527   -2.9519 H   0  0  0  0  0  0  0  0  0  0  0  0
    3.9394   17.6933    0.5569 H   0  0  0  0  0  0  0  0  0  0  0  0
    4.1817   16.6943   -0.9162 H   0  0  0  0  0  0  0  0  0  0  0  0
    4.6608   18.4256   -0.9162 H   0  0  0  0  0  0  0  0  0  0  0  0
    1.5947   15.1531   -0.1252 H   0  0  0  0  0  0  0  0  0  0  0  0
    1.6446   13.7610    1.8493 H   0  0  0  0  0  0  0  0  0  0  0  0
   -0.0826   13.3685    1.7105 H   0  0  0  0  0  0  0  0  0  0  0  0
    2.0777   11.6294    1.0179 H   0  0  0  0  0  0  0  0  0  0  0  0
    0.4060   11.3716    0.5260 H   0  0  0  0  0  0  0  0  0  0  0  0
    3.3866   13.0587    0.2020 H   0  0  0  0  0  0  0  0  0  0  0  0
    3.7727   12.2412   -1.3502 H   0  0  0  0  0  0  0  0  0  0  0  0
    3.1950   13.9421   -1.3502 H   0  0  0  0  0  0  0  0  0  0  0  0
    0.4449   10.9901   -1.8669 H   0  0  0  0  0  0  0  0  0  0  0  0
    2.5078    9.9788   -0.7034 H   0  0  0  0  0  0  0  0  0  0  0  0
    1.8285    9.2438   -2.2485 H   0  0  0  0  0  0  0  0  0  0  0  0
    4.4542    9.4011   -2.0891 H   0  0  0  0  0  0  0  0  0  0  0  0
    3.3596   12.9669   -3.6366 H   0  0  0  0  0  0  0  0  0  0  0  0
    2.8812   10.9598   -5.9251 H   0  0  0  0  0  0  0  0  0  0  0  0
    2.5748   12.7529   -5.9626 H   0  0  0  0  0  0  0  0  0  0  0  0
    4.6642   12.1358   -7.1349 H   0  0  0  0  0  0  0  0  0  0  0  0
    4.9475   13.1946   -5.6985 H   0  0  0  0  0  0  0  0  0  0  0  0
    6.6125   11.4665   -5.7224 H   0  0  0  0  0  0  0  0  0  0  0  0
    5.0410   10.0080   -6.9370 H   0  0  0  0  0  0  0  0  0  0  0  0
    6.1464   12.3156   -2.2038 H   0  0  0  0  0  0  0  0  0  0  0  0
    7.2176   12.4603   -3.6385 H   0  0  0  0  0  0  0  0  0  0  0  0
    5.6047   13.2510   -3.6385 H   0  0  0  0  0  0  0  0  0  0  0  0
    6.4813    9.8716   -2.3511 H   0  0  0  0  0  0  0  0  0  0  0  0
    6.0448    8.9660   -3.8397 H   0  0  0  0  0  0  0  0  0  0  0  0
    7.4686   10.0611   -3.8397 H   0  0  0  0  0  0  0  0  0  0  0  0
    0.3202   10.0504   -3.7387 H   0  0  0  0  0  0  0  0  0  0  0  0
    0.0881   11.2785   -5.0289 H   0  0  0  0  0  0  0  0  0  0  0  0
    1.5553   10.2420   -5.0289 H   0  0  0  0  0  0  0  0  0  0  0  0
    1.2479   13.6613   -4.6500 H   0  0  0  0  0  0  0  0  0  0  0  0
   -0.2379   12.9332   -3.8153 H   0  0  0  0  0  0  0  0  0  0  0  0
    1.9370   14.6337   -2.5656 H   0  0  0  0  0  0  0  0  0  0  0  0
    0.1904   15.0323   -2.8061 H   0  0  0  0  0  0  0  0  0  0  0  0
   -1.2991   12.9646   -0.3033 H   0  0  0  0  0  0  0  0  0  0  0  0
   -1.5204   13.8375   -1.8575 H   0  0  0  0  0  0  0  0  0  0  0  0
   -0.9534   12.1330   -1.8575 H   0  0  0  0  0  0  0  0  0  0  0  0
  1  2  1  0
  2  3  1  0
  3  4  1  0
  4  5  1  0
  5  6  1  0
  6  7  1  0
  7  8  1  0
  7  9  1  0
  2 10  1  0
 10 11  1  0
 11 12  1  0
 12 13  1  0
 13 14  1  1
 13 15  1  0
 15 16  1  0
 16 17  1  0
 17 18  2  0
 18 19  1  0
 19 20  1  0
 20 21  1  0
 21 22  1  0
 22 23  1  0
 22 24  1  0
 24 25  1  0
 24 26  1  0
 19 27  1  0
 27 28  1  6
 27 29  1  0
 29 30  1  0
 30 31  1  0
 31 32  1  6
  7  5  1  0
 31 10  1  0
 31 13  1  0
 27 15  1  0
 24 18  1  0
  1 33  1  0
  1 34  1  0
  1 35  1  0
  2 36  1  1
  3 37  1  0
  3 38  1  0
  4 39  1  0
  4 40  1  0
  5 41  1  1
  8 42  1  0
  8 43  1  0
  8 44  1  0
  9 45  1  0
  9 46  1  0
  9 47  1  0
 10 48  1  6
 11 49  1  0
 11 50  1  0
 12 51  1  0
 12 52  1  0
 14 53  1  0
 14 54  1  0
 14 55  1  0
 15 56  1  6
 16 57  1  0
 16 58  1  0
 17 59  1  0
 19 60  1  1
 20 61  1  0
 20 62  1  0
 21 63  1  0
 21 64  1  0
 22 65  1  1
 23 66  1  0
 25 67  1  0
 25 68  1  0
 25 69  1  0
 26 70  1  0
 26 71  1  0
 26 72  1  0
 28 73  1  0
 28 74  1  0
 28 75  1  0
 29 76  1  0
 29 77  1  0
 30 78  1  0
 30 79  1  0
 32 80  1  0
 32 81  1  0
 32 82  1  0
M  END
>  <meeko>  (16) 
{"is_sidechain": [false], "intermolecular_energy": 2.731, "internal_energy": -0.839}

$$$$
EPH_relaxed_0001_pdb2pqr_Repair_68_r2_0001_out
     RDKit          3D

 82 86  0  0  0  0  0  0  0  0999 V2000
    0.8850   14.8390   -2.6060 C   0  0  0  0  0  0  0  0  0  0  0  0
    1.1710   14.1560   -3.9460 C   0  0  2  0  0  0  0  0  0  0  0  0
    0.4960   14.8840   -5.1250 C   0  0  0  0  0  0  0  0  0  0  0  0
    1.1580   14.6100   -6.4780 C   0  0  0  0  0  0  0  0  0  0  0  0
    0.8870   15.7080   -7.4610 C   0  0  2  0  0  0  0  0  0  0  0  0
    0.3920   15.2660   -8.7320 O   0  0  0  0  0  0  0  0  0  0  0  0
    1.6800   15.9020   -8.7400 C   0  0  0  0  0  0  0  0  0  0  0  0
    2.8080   14.9880   -9.1040 C   0  0  0  0  0  0  0  0  0  0  0  0
    1.6820   17.2530   -9.3830 C   0  0  0  0  0  0  0  0  0  0  0  0
    0.7110   12.7030   -3.8980 C   0  0  1  0  0  0  0  0  0  0  0  0
    1.8410   11.7050   -4.2630 C   0  0  0  0  0  0  0  0  0  0  0  0
    1.6220   10.4420   -3.3920 C   0  0  0  0  0  0  0  0  0  0  0  0
    0.2010   10.6150   -2.8060 C   0  0  1  0  0  0  0  0  0  0  0  0
   -0.7620   10.1520   -3.9430 C   0  0  0  0  0  0  0  0  0  0  0  0
   -0.0880    9.8660   -1.4640 C   0  0  2  0  0  0  0  0  0  0  0  0
    0.0070    8.3320   -1.5390 C   0  0  0  0  0  0  0  0  0  0  0  0
   -1.2650    7.6300   -1.8800 C   0  0  0  0  0  0  0  0  0  0  0  0
   -2.4950    8.1750   -1.8370 C   0  0  0  0  0  0  0  0  0  0  0  0
   -2.7060    9.6040   -1.3200 C   0  0  1  0  0  0  0  0  0  0  0  0
   -3.9000    9.6250   -0.3300 C   0  0  0  0  0  0  0  0  0  0  0  0
   -5.1690    9.0290   -0.9300 C   0  0  0  0  0  0  0  0  0  0  0  0
   -4.9350    7.5890   -1.3790 C   0  0  2  0  0  0  0  0  0  0  0  0
   -4.6990    6.7780   -0.2240 O   0  0  0  0  0  0  0  0  0  0  0  0
   -3.7490    7.4410   -2.3730 C   0  0  0  0  0  0  0  0  0  0  0  0
   -4.1320    8.0660   -3.7370 C   0  0  0  0  0  0  0  0  0  0  0  0
   -3.5320    5.9270   -2.6360 C   0  0  0  0  0  0  0  0  0  0  0  0
   -1.4160   10.3270   -0.7370 C   0  0  1  0  0  0  0  0  0  0  0  0
   -1.2440    9.9740    0.7720 C   0  0  0  0  0  0  0  0  0  0  0  0
   -1.6260   11.8860   -0.8080 C   0  0  0  0  0  0  0  0  0  0  0  0
   -1.2100   12.5850   -2.1160 C   0  0  0  0  0  0  0  0  0  0  0  0
    0.2010   12.1640   -2.5380 C   0  0  2  0  0  0  0  0  0  0  0  0
    1.1950   12.6360   -1.4220 C   0  0  0  0  0  0  0  0  0  0  0  0
    1.1671   14.1653   -1.7835 H   0  0  0  0  0  0  0  0  0  0  0  0
    1.4696   15.7681   -2.5359 H   0  0  0  0  0  0  0  0  0  0  0  0
   -0.1872   15.0743   -2.5359 H   0  0  0  0  0  0  0  0  0  0  0  0
    2.2576   14.1964   -4.1123 H   0  0  0  0  0  0  0  0  0  0  0  0
   -0.5532   14.5582   -5.1795 H   0  0  0  0  0  0  0  0  0  0  0  0
    0.5911   15.9630   -4.9333 H   0  0  0  0  0  0  0  0  0  0  0  0
    2.2448   14.5228   -6.3318 H   0  0  0  0  0  0  0  0  0  0  0  0
    0.7381   13.6771   -6.8821 H   0  0  0  0  0  0  0  0  0  0  0  0
    0.6160   16.3988   -6.6490 H   0  0  0  0  0  0  0  0  0  0  0  0
    3.2803   14.6053   -8.1872 H   0  0  0  0  0  0  0  0  0  0  0  0
    2.4209   14.1457   -9.6961 H   0  0  0  0  0  0  0  0  0  0  0  0
    3.5518   15.5413   -9.6961 H   0  0  0  0  0  0  0  0  0  0  0  0
    1.6832   18.0298   -8.6041 H   0  0  0  0  0  0  0  0  0  0  0  0
    2.5803   17.3599  -10.0088 H   0  0  0  0  0  0  0  0  0  0  0  0
    0.7840   17.3626  -10.0088 H   0  0  0  0  0  0  0  0  0  0  0  0
   -0.1175   12.7484   -4.6202 H   0  0  0  0  0  0  0  0  0  0  0  0
    1.7851   11.4435   -5.3300 H   0  0  0  0  0  0  0  0  0  0  0  0
    2.8317   12.1455   -4.0772 H   0  0  0  0  0  0  0  0  0  0  0  0
    1.6807    9.5314   -4.0064 H   0  0  0  0  0  0  0  0  0  0  0  0
    2.3869   10.3374   -2.6084 H   0  0  0  0  0  0  0  0  0  0  0  0
   -1.6694    9.7157   -3.5000 H   0  0  0  0  0  0  0  0  0  0  0  0
   -1.0369   11.0164   -4.5653 H   0  0  0  0  0  0  0  0  0  0  0  0
   -0.2586    9.3975   -4.5653 H   0  0  0  0  0  0  0  0  0  0  0  0
    0.7516   10.1871   -0.8299 H   0  0  0  0  0  0  0  0  0  0  0  0
    0.7530    8.0748   -2.3053 H   0  0  0  0  0  0  0  0  0  0  0  0
    0.2791    7.9944   -0.5281 H   0  0  0  0  0  0  0  0  0  0  0  0
   -1.1911    6.5781   -2.1930 H   0  0  0  0  0  0  0  0  0  0  0  0
   -2.9430   10.2159   -2.2028 H   0  0  0  0  0  0  0  0  0  0  0  0
   -3.6268    9.0452    0.5640 H   0  0  0  0  0  0  0  0  0  0  0  0
   -4.1098   10.6761   -0.0829 H   0  0  0  0  0  0  0  0  0  0  0  0
   -5.9672    9.0451   -0.1732 H   0  0  0  0  0  0  0  0  0  0  0  0
   -5.4582    9.6278   -1.8063 H   0  0  0  0  0  0  0  0  0  0  0  0
   -5.8369    7.2614   -1.9168 H   0  0  0  0  0  0  0  0  0  0  0  0
   -4.6680    7.3680    0.5480 H   0  0  0  0  0  0  0  0  0  0  0  0
   -4.7000    8.9929   -3.5690 H   0  0  0  0  0  0  0  0  0  0  0  0
   -3.2182    8.2938   -4.3055 H   0  0  0  0  0  0  0  0  0  0  0  0
   -4.7498    7.3553   -4.3055 H   0  0  0  0  0  0  0  0  0  0  0  0
   -3.4558    5.3953   -1.6760 H   0  0  0  0  0  0  0  0  0  0  0  0
   -4.3823    5.5289   -3.2092 H   0  0  0  0  0  0  0  0  0  0  0  0
   -2.6041    5.7837   -3.2092 H   0  0  0  0  0  0  0  0  0  0  0  0
   -1.6432   10.7933    1.3880 H   0  0  0  0  0  0  0  0  0  0  0  0
   -1.7911    9.0465    0.9963 H   0  0  0  0  0  0  0  0  0  0  0  0
   -0.1763    9.8333    0.9963 H   0  0  0  0  0  0  0  0  0  0  0  0
   -2.6963   12.0849   -0.6505 H   0  0  0  0  0  0  0  0  0  0  0  0
   -0.9609   12.3010   -0.0363 H   0  0  0  0  0  0  0  0  0  0  0  0
   -1.9197   12.3125   -2.9110 H   0  0  0  0  0  0  0  0  0  0  0  0
   -1.2166   13.6724   -1.9500 H   0  0  0  0  0  0  0  0  0  0  0  0
    0.7605   12.4297   -0.4328 H   0  0  0  0  0  0  0  0  0  0  0  0
    2.1464   12.0935   -1.5250 H   0  0  0  0  0  0  0  0  0  0  0  0
    1.3758   13.7161   -1.5250 H   0  0  0  0  0  0  0  0  0  0  0  0
  1  2  1  0
  2  3  1  0
  3  4  1  0
  4  5  1  0
  5  6  1  0
  6  7  1  0
  7  8  1  0
  7  9  1  0
  2 10  1  0
 10 11  1  0
 11 12  1  0
 12 13  1  0
 13 14  1  6
 13 15  1  0
 15 16  1  0
 16 17  1  0
 17 18  2  0
 18 19  1  0
 19 20  1  0
 20 21  1  0
 21 22  1  0
 22 23  1  0
 22 24  1  0
 24 25  1  0
 24 26  1  0
 19 27  1  0
 27 28  1  1
 27 29  1  0
 29 30  1  0
 30 31  1  0
 31 32  1  1
  7  5  1  0
 31 10  1  0
 31 13  1  0
 27 15  1  0
 24 18  1  0
  1 33  1  0
  1 34  1  0
  1 35  1  0
  2 36  1  6
  3 37  1  0
  3 38  1  0
  4 39  1  0
  4 40  1  0
  5 41  1  1
  8 42  1  0
  8 43  1  0
  8 44  1  0
  9 45  1  0
  9 46  1  0
  9 47  1  0
 10 48  1  6
 11 49  1  0
 11 50  1  0
 12 51  1  0
 12 52  1  0
 14 53  1  0
 14 54  1  0
 14 55  1  0
 15 56  1  1
 16 57  1  0
 16 58  1  0
 17 59  1  0
 19 60  1  6
 20 61  1  0
 20 62  1  0
 21 63  1  0
 21 64  1  0
 22 65  1  6
 23 66  1  0
 25 67  1  0
 25 68  1  0
 25 69  1  0
 26 70  1  0
 26 71  1  0
 26 72  1  0
 28 73  1  0
 28 74  1  0
 28 75  1  0
 29 76  1  0
 29 77  1  0
 30 78  1  0
 30 79  1  0
 32 80  1  0
 32 81  1  0
 32 82  1  0
M  END
>  <meeko>  (17) 
{"is_sidechain": [false], "intermolecular_energy": 2.731, "internal_energy": -0.839}

$$$$
EPH_relaxed_0001_pdb2pqr_Repair_68_r2_0001_out
     RDKit          3D

 82 86  0  0  0  0  0  0  0  0999 V2000
   -2.4240    7.6740   -0.0880 C   0  0  0  0  0  0  0  0  0  0  0  0
   -3.0550    9.0690   -0.0600 C   0  0  2  0  0  0  0  0  0  0  0  0
   -4.5510    9.0370   -0.4350 C   0  0  0  0  0  0  0  0  0  0  0  0
   -5.1230    7.6230   -0.5640 C   0  0  0  0  0  0  0  0  0  0  0  0
   -5.9050    7.4550   -1.8320 C   0  0  2  0  0  0  0  0  0  0  0  0
   -6.8160    8.5240   -2.1190 O   0  0  0  0  0  0  0  0  0  0  0  0
   -7.4060    7.2390   -1.8660 C   0  0  0  0  0  0  0  0  0  0  0  0
   -8.2150    7.1780   -0.6080 C   0  0  0  0  0  0  0  0  0  0  0  0
   -8.0100    6.6030   -3.0790 C   0  0  0  0  0  0  0  0  0  0  0  0
   -2.3020    9.9990   -1.0040 C   0  0  1  0  0  0  0  0  0  0  0  0
   -2.9650   11.3960   -1.1220 C   0  0  0  0  0  0  0  0  0  0  0  0
   -1.8170   12.4250   -1.2880 C   0  0  0  0  0  0  0  0  0  0  0  0
   -0.5660   11.5670   -1.5920 C   0  0  1  0  0  0  0  0  0  0  0  0
   -0.6640   11.2410   -3.1150 C   0  0  0  0  0  0  0  0  0  0  0  0
    0.8140   12.2030   -1.2250 C   0  0  2  0  0  0  0  0  0  0  0  0
    1.1590   13.4950   -1.9850 C   0  0  0  0  0  0  0  0  0  0  0  0
    1.9050   13.3030   -3.2640 C   0  0  0  0  0  0  0  0  0  0  0  0
    2.5300   12.1730   -3.6430 C   0  0  0  0  0  0  0  0  0  0  0  0
    2.6090   10.9630   -2.7020 C   0  0  1  0  0  0  0  0  0  0  0  0
    4.0590   10.4140   -2.6860 C   0  0  0  0  0  0  0  0  0  0  0  0
    4.5820   10.1000   -4.0840 C   0  0  0  0  0  0  0  0  0  0  0  0
    4.5420   11.3410   -4.9730 C   0  0  2  0  0  0  0  0  0  0  0  0
    5.4810   12.2970   -4.4710 O   0  0  0  0  0  0  0  0  0  0  0  0
    3.1310   11.9880   -5.0580 C   0  0  0  0  0  0  0  0  0  0  0  0
    2.1860   11.0710   -5.8720 C   0  0  0  0  0  0  0  0  0  0  0  0
    3.2600   13.3070   -5.8670 C   0  0  0  0  0  0  0  0  0  0  0  0
    2.0230   11.1820   -1.2410 C   0  0  1  0  0  0  0  0  0  0  0  0
    3.1220   11.7790   -0.3100 C   0  0  0  0  0  0  0  0  0  0  0  0
    1.6340    9.7850   -0.6280 C   0  0  0  0  0  0  0  0  0  0  0  0
    0.2150    9.2650   -0.9280 C   0  0  0  0  0  0  0  0  0  0  0  0
   -0.8350   10.3430   -0.6420 C   0  0  2  0  0  0  0  0  0  0  0  0
   -0.7760   10.6750    0.8880 C   0  0  0  0  0  0  0  0  0  0  0  0
   -2.2651    7.3227    0.9422 H   0  0  0  0  0  0  0  0  0  0  0  0
   -3.0951    6.9785   -0.6132 H   0  0  0  0  0  0  0  0  0  0  0  0
   -1.4585    7.7188   -0.6132 H   0  0  0  0  0  0  0  0  0  0  0  0
   -2.9805    9.4454    0.9709 H   0  0  0  0  0  0  0  0  0  0  0  0
   -5.1157    9.5703    0.3439 H   0  0  0  0  0  0  0  0  0  0  0  0
   -4.6452    9.5131   -1.4221 H   0  0  0  0  0  0  0  0  0  0  0  0
   -4.2932    6.9009   -0.5585 H   0  0  0  0  0  0  0  0  0  0  0  0
   -5.8023    7.4491    0.2835 H   0  0  0  0  0  0  0  0  0  0  0  0
   -5.0709    6.9143   -2.3031 H   0  0  0  0  0  0  0  0  0  0  0  0
   -7.5441    7.2286    0.2622 H   0  0  0  0  0  0  0  0  0  0  0  0
   -8.9152    8.0259   -0.5809 H   0  0  0  0  0  0  0  0  0  0  0  0
   -8.7802    6.2347   -0.5809 H   0  0  0  0  0  0  0  0  0  0  0  0
   -8.7367    5.8378   -2.7684 H   0  0  0  0  0  0  0  0  0  0  0  0
   -8.5198    7.3704   -3.6800 H   0  0  0  0  0  0  0  0  0  0  0  0
   -7.2173    6.1334   -3.6800 H   0  0  0  0  0  0  0  0  0  0  0  0
   -2.3317    9.3934   -1.9218 H   0  0  0  0  0  0  0  0  0  0  0  0
   -3.6303   11.4266   -1.9975 H   0  0  0  0  0  0  0  0  0  0  0  0
   -3.5710   11.6214   -0.2321 H   0  0  0  0  0  0  0  0  0  0  0  0
   -2.0285   13.1121   -2.1206 H   0  0  0  0  0  0  0  0  0  0  0  0
   -1.6859   13.0521   -0.3938 H   0  0  0  0  0  0  0  0  0  0  0  0
   -0.9784   10.1951   -3.2466 H   0  0  0  0  0  0  0  0  0  0  0  0
   -1.4015   11.9076   -3.5860 H   0  0  0  0  0  0  0  0  0  0  0  0
    0.3188   11.3905   -3.5860 H   0  0  0  0  0  0  0  0  0  0  0  0
    0.6645   12.5036   -0.1775 H   0  0  0  0  0  0  0  0  0  0  0  0
    0.2177   14.0154   -2.2154 H   0  0  0  0  0  0  0  0  0  0  0  0
    1.8284   14.0665   -1.3252 H   0  0  0  0  0  0  0  0  0  0  0  0
    1.9474   14.1577   -3.9552 H   0  0  0  0  0  0  0  0  0  0  0  0
    1.9283   10.2069   -3.1203 H   0  0  0  0  0  0  0  0  0  0  0  0
    4.7157   11.1664   -2.2248 H   0  0  0  0  0  0  0  0  0  0  0  0
    4.0537    9.4749   -2.1132 H   0  0  0  0  0  0  0  0  0  0  0  0
    5.6202    9.7445   -4.0085 H   0  0  0  0  0  0  0  0  0  0  0  0
    3.9421    9.3259   -4.5326 H   0  0  0  0  0  0  0  0  0  0  0  0
    4.8038   11.0253   -5.9937 H   0  0  0  0  0  0  0  0  0  0  0  0
    5.9960   11.8630   -3.7700 H   0  0  0  0  0  0  0  0  0  0  0  0
    1.5708   10.4740   -5.1827 H   0  0  0  0  0  0  0  0  0  0  0  0
    1.5324   11.6882   -6.5059 H   0  0  0  0  0  0  0  0  0  0  0  0
    2.7833   10.3991   -6.5059 H   0  0  0  0  0  0  0  0  0  0  0  0
    3.3431   14.1563   -5.1728 H   0  0  0  0  0  0  0  0  0  0  0  0
    4.1580   13.2622   -6.5006 H   0  0  0  0  0  0  0  0  0  0  0  0
    2.3703   13.4370   -6.5006 H   0  0  0  0  0  0  0  0  0  0  0  0
    2.8363   11.6238    0.7408 H   0  0  0  0  0  0  0  0  0  0  0  0
    4.0813   11.2780   -0.5070 H   0  0  0  0  0  0  0  0  0  0  0  0
    3.2238   12.8564   -0.5070 H   0  0  0  0  0  0  0  0  0  0  0  0
    2.3486    9.0424   -1.0125 H   0  0  0  0  0  0  0  0  0  0  0  0
    1.6623    9.9312    0.4619 H   0  0  0  0  0  0  0  0  0  0  0  0
    0.1542    8.9754   -1.9874 H   0  0  0  0  0  0  0  0  0  0  0  0
    0.0143    8.3988   -0.2803 H   0  0  0  0  0  0  0  0  0  0  0  0
   -0.9394    9.7555    1.4693 H   0  0  0  0  0  0  0  0  0  0  0  0
    0.2107   11.0941    1.1345 H   0  0  0  0  0  0  0  0  0  0  0  0
   -1.5579   11.4084    1.1345 H   0  0  0  0  0  0  0  0  0  0  0  0
  1  2  1  0
  2  3  1  0
  3  4  1  0
  4  5  1  0
  5  6  1  0
  6  7  1  0
  7  8  1  0
  7  9  1  0
  2 10  1  0
 10 11  1  0
 11 12  1  0
 12 13  1  0
 13 14  1  6
 13 15  1  0
 15 16  1  0
 16 17  1  0
 17 18  2  0
 18 19  1  0
 19 20  1  0
 20 21  1  0
 21 22  1  0
 22 23  1  0
 22 24  1  0
 24 25  1  0
 24 26  1  0
 19 27  1  0
 27 28  1  1
 27 29  1  0
 29 30  1  0
 30 31  1  0
 31 32  1  1
  7  5  1  0
 31 10  1  0
 31 13  1  0
 27 15  1  0
 24 18  1  0
  1 33  1  0
  1 34  1  0
  1 35  1  0
  2 36  1  1
  3 37  1  0
  3 38  1  0
  4 39  1  0
  4 40  1  0
  5 41  1  6
  8 42  1  0
  8 43  1  0
  8 44  1  0
  9 45  1  0
  9 46  1  0
  9 47  1  0
 10 48  1  6
 11 49  1  0
 11 50  1  0
 12 51  1  0
 12 52  1  0
 14 53  1  0
 14 54  1  0
 14 55  1  0
 15 56  1  1
 16 57  1  0
 16 58  1  0
 17 59  1  0
 19 60  1  6
 20 61  1  0
 20 62  1  0
 21 63  1  0
 21 64  1  0
 22 65  1  6
 23 66  1  0
 25 67  1  0
 25 68  1  0
 25 69  1  0
 26 70  1  0
 26 71  1  0
 26 72  1  0
 28 73  1  0
 28 74  1  0
 28 75  1  0
 29 76  1  0
 29 77  1  0
 30 78  1  0
 30 79  1  0
 32 80  1  0
 32 81  1  0
 32 82  1  0
M  END
>  <meeko>  (18) 
{"is_sidechain": [false], "intermolecular_energy": 2.731, "internal_energy": -0.839}

$$$$
EPH_relaxed_0001_pdb2pqr_Repair_68_r2_0001_out
     RDKit          3D

 82 86  0  0  0  0  0  0  0  0999 V2000
    3.1390   14.8550   -7.5390 C   0  0  0  0  0  0  0  0  0  0  0  0
    1.6150   14.8870   -7.3970 C   0  0  2  0  0  0  0  0  0  0  0  0
    0.9950   16.1280   -8.0690 C   0  0  0  0  0  0  0  0  0  0  0  0
    1.9210   16.8070   -9.0820 C   0  0  0  0  0  0  0  0  0  0  0  0
    1.5900   16.4100  -10.4890 C   0  0  2  0  0  0  0  0  0  0  0  0
    0.9920   15.1130  -10.6200 O   0  0  0  0  0  0  0  0  0  0  0  0
    2.2850   15.2790  -11.2240 C   0  0  0  0  0  0  0  0  0  0  0  0
    3.3680   14.4750  -10.5750 C   0  0  0  0  0  0  0  0  0  0  0  0
    2.2560   15.2740  -12.7210 C   0  0  0  0  0  0  0  0  0  0  0  0
    1.2300   14.8450   -5.9230 C   0  0  1  0  0  0  0  0  0  0  0  0
   -0.0260   15.7010   -5.6090 C   0  0  0  0  0  0  0  0  0  0  0  0
   -0.8050   14.9610   -4.4920 C   0  0  0  0  0  0  0  0  0  0  0  0
    0.1830   13.8910   -3.9710 C   0  0  1  0  0  0  0  0  0  0  0  0
    1.1190   14.6560   -2.9850 C   0  0  0  0  0  0  0  0  0  0  0  0
   -0.4540   12.6300   -3.3010 C   0  0  2  0  0  0  0  0  0  0  0  0
   -1.2730   12.9100   -2.0290 C   0  0  0  0  0  0  0  0  0  0  0  0
   -0.5030   12.8540   -0.7510 C   0  0  0  0  0  0  0  0  0  0  0  0
    0.7200   12.3140   -0.5970 C   0  0  0  0  0  0  0  0  0  0  0  0
    1.4150   11.5950   -1.7600 C   0  0  1  0  0  0  0  0  0  0  0  0
    2.0020   10.2490   -1.2600 C   0  0  0  0  0  0  0  0  0  0  0  0
    2.9170   10.4220   -0.0520 C   0  0  0  0  0  0  0  0  0  0  0  0
    2.1730   11.0870    1.1040 C   0  0  2  0  0  0  0  0  0  0  0  0
    1.1600   10.1940    1.5760 O   0  0  0  0  0  0  0  0  0  0  0  0
    1.5300   12.4480    0.7160 C   0  0  0  0  0  0  0  0  0  0  0  0
    2.6410   13.5050    0.4950 C   0  0  0  0  0  0  0  0  0  0  0  0
    0.6940   12.9440    1.9260 C   0  0  0  0  0  0  0  0  0  0  0  0
    0.5550   11.4300   -3.0870 C   0  0  1  0  0  0  0  0  0  0  0  0
   -0.3060   10.1330   -3.0060 C   0  0  0  0  0  0  0  0  0  0  0  0
    1.5280   11.2410   -4.3100 C   0  0  0  0  0  0  0  0  0  0  0  0
    2.0290   12.5220   -5.0050 C   0  0  0  0  0  0  0  0  0  0  0  0
    0.8640   13.4640   -5.3230 C   0  0  2  0  0  0  0  0  0  0  0  0
   -0.0840   12.7300   -6.3310 C   0  0  0  0  0  0  0  0  0  0  0  0
    3.6002   14.8453   -6.5404 H   0  0  0  0  0  0  0  0  0  0  0  0
    3.4371   13.9504   -8.0893 H   0  0  0  0  0  0  0  0  0  0  0  0
    3.4748   15.7463   -8.0893 H   0  0  0  0  0  0  0  0  0  0  0  0
    1.2157   14.0002   -7.9109 H   0  0  0  0  0  0  0  0  0  0  0  0
    0.0773   15.8184   -8.5905 H   0  0  0  0  0  0  0  0  0  0  0  0
    0.7983   16.8604   -7.2722 H   0  0  0  0  0  0  0  0  0  0  0  0
    1.8163   17.8977   -8.9854 H   0  0  0  0  0  0  0  0  0  0  0  0
    2.9526   16.4896   -8.8699 H   0  0  0  0  0  0  0  0  0  0  0  0
    1.3921   17.4567  -10.7633 H   0  0  0  0  0  0  0  0  0  0  0  0
    3.2722   14.5461   -9.4815 H   0  0  0  0  0  0  0  0  0  0  0  0
    3.2785   13.4229  -10.8833 H   0  0  0  0  0  0  0  0  0  0  0  0
    4.3492   14.8652  -10.8833 H   0  0  0  0  0  0  0  0  0  0  0  0
    1.2271   15.0966  -13.0672 H   0  0  0  0  0  0  0  0  0  0  0  0
    2.6072   16.2460  -13.0978 H   0  0  0  0  0  0  0  0  0  0  0  0
    2.9124   14.4758  -13.0978 H   0  0  0  0  0  0  0  0  0  0  0  0
    2.1657   15.2134   -5.4773 H   0  0  0  0  0  0  0  0  0  0  0  0
    0.2742   16.7009   -5.2625 H   0  0  0  0  0  0  0  0  0  0  0  0
   -0.6497   15.8301   -6.5058 H   0  0  0  0  0  0  0  0  0  0  0  0
   -1.0842   15.6567   -3.6869 H   0  0  0  0  0  0  0  0  0  0  0  0
   -1.7429   14.5192   -4.8597 H   0  0  0  0  0  0  0  0  0  0  0  0
    0.8315   14.4210   -1.9496 H   0  0  0  0  0  0  0  0  0  0  0  0
    2.1612   14.3478   -3.1551 H   0  0  0  0  0  0  0  0  0  0  0  0
    1.0244   15.7386   -3.1551 H   0  0  0  0  0  0  0  0  0  0  0  0
   -1.1819   12.3033   -4.0583 H   0  0  0  0  0  0  0  0  0  0  0  0
   -1.7089   13.9159   -2.1197 H   0  0  0  0  0  0  0  0  0  0  0  0
   -2.0243   12.1089   -1.9676 H   0  0  0  0  0  0  0  0  0  0  0  0
   -0.9757   13.2915    0.1407 H   0  0  0  0  0  0  0  0  0  0  0  0
    2.2289   12.2597   -2.0851 H   0  0  0  0  0  0  0  0  0  0  0  0
    1.1713    9.5843   -0.9807 H   0  0  0  0  0  0  0  0  0  0  0  0
    2.6042    9.8238   -2.0765 H   0  0  0  0  0  0  0  0  0  0  0  0
    3.2766    9.4342    0.2719 H   0  0  0  0  0  0  0  0  0  0  0  0
    3.7630   11.0630   -0.3407 H   0  0  0  0  0  0  0  0  0  0  0  0
    2.9111   11.3012    1.8910 H   0  0  0  0  0  0  0  0  0  0  0  0
    1.6040    9.4700    2.0490 H   0  0  0  0  0  0  0  0  0  0  0  0
    3.0111   13.8571    1.4692 H   0  0  0  0  0  0  0  0  0  0  0  0
    3.4694   13.0535   -0.0705 H   0  0  0  0  0  0  0  0  0  0  0  0
    2.2313   14.3549   -0.0705 H   0  0  0  0  0  0  0  0  0  0  0  0
    1.1918   12.6486    2.8614 H   0  0  0  0  0  0  0  0  0  0  0  0
    0.6071   14.0399    1.8871 H   0  0  0  0  0  0  0  0  0  0  0  0
   -0.3094   12.4950    1.8871 H   0  0  0  0  0  0  0  0  0  0  0  0
   -0.4787    9.8728   -1.9513 H   0  0  0  0  0  0  0  0  0  0  0  0
   -1.2717   10.3022   -3.5048 H   0  0  0  0  0  0  0  0  0  0  0  0
    0.2249    9.3087   -3.5048 H   0  0  0  0  0  0  0  0  0  0  0  0
    2.4102   10.6905   -3.9512 H   0  0  0  0  0  0  0  0  0  0  0  0
    0.9337   10.7146   -5.0714 H   0  0  0  0  0  0  0  0  0  0  0  0
    2.7381   13.0379   -4.3410 H   0  0  0  0  0  0  0  0  0  0  0  0
    2.5201   12.2404   -5.9481 H   0  0  0  0  0  0  0  0  0  0  0  0
   -0.8336   12.1496   -5.7731 H   0  0  0  0  0  0  0  0  0  0  0  0
   -0.5919   13.4726   -6.9639 H   0  0  0  0  0  0  0  0  0  0  0  0
    0.5078   12.0523   -6.9639 H   0  0  0  0  0  0  0  0  0  0  0  0
  1  2  1  0
  2  3  1  0
  3  4  1  0
  4  5  1  0
  5  6  1  0
  6  7  1  0
  7  8  1  0
  7  9  1  0
  2 10  1  0
 10 11  1  0
 11 12  1  0
 12 13  1  0
 13 14  1  1
 13 15  1  0
 15 16  1  0
 16 17  1  0
 17 18  2  0
 18 19  1  0
 19 20  1  0
 20 21  1  0
 21 22  1  0
 22 23  1  0
 22 24  1  0
 24 25  1  0
 24 26  1  0
 19 27  1  0
 27 28  1  1
 27 29  1  0
 29 30  1  0
 30 31  1  0
 31 32  1  6
  7  5  1  0
 31 10  1  0
 31 13  1  0
 27 15  1  0
 24 18  1  0
  1 33  1  0
  1 34  1  0
  1 35  1  0
  2 36  1  6
  3 37  1  0
  3 38  1  0
  4 39  1  0
  4 40  1  0
  5 41  1  6
  8 42  1  0
  8 43  1  0
  8 44  1  0
  9 45  1  0
  9 46  1  0
  9 47  1  0
 10 48  1  1
 11 49  1  0
 11 50  1  0
 12 51  1  0
 12 52  1  0
 14 53  1  0
 14 54  1  0
 14 55  1  0
 15 56  1  6
 16 57  1  0
 16 58  1  0
 17 59  1  0
 19 60  1  6
 20 61  1  0
 20 62  1  0
 21 63  1  0
 21 64  1  0
 22 65  1  1
 23 66  1  0
 25 67  1  0
 25 68  1  0
 25 69  1  0
 26 70  1  0
 26 71  1  0
 26 72  1  0
 28 73  1  0
 28 74  1  0
 28 75  1  0
 29 76  1  0
 29 77  1  0
 30 78  1  0
 30 79  1  0
 32 80  1  0
 32 81  1  0
 32 82  1  0
M  END
>  <meeko>  (19) 
{"is_sidechain": [false], "intermolecular_energy": 2.731, "internal_energy": -0.839}

$$$$
EPH_relaxed_0001_pdb2pqr_Repair_68_r2_0001_out
     RDKit          3D

 82 86  0  0  0  0  0  0  0  0999 V2000
    4.1710   17.6310   -0.6470 C   0  0  0  0  0  0  0  0  0  0  0  0
    2.8180   18.1730   -0.1760 C   0  0  2  0  0  0  0  0  0  0  0  0
    2.9060   18.8170    1.2220 C   0  0  0  0  0  0  0  0  0  0  0  0
    4.2800   18.6740    1.8810 C   0  0  0  0  0  0  0  0  0  0  0  0
    4.3170   19.3180    3.2330 C   0  0  2  0  0  0  0  0  0  0  0  0
    5.4300   20.1950    3.4490 O   0  0  0  0  0  0  0  0  0  0  0  0
    5.3800   19.0190    4.2740 C   0  0  0  0  0  0  0  0  0  0  0  0
    6.4800   18.0400    4.0070 C   0  0  0  0  0  0  0  0  0  0  0  0
    5.0740   19.3040    5.7120 C   0  0  0  0  0  0  0  0  0  0  0  0
    1.7830   17.0540   -0.1710 C   0  0  1  0  0  0  0  0  0  0  0  0
    0.3530   17.5620   -0.4940 C   0  0  0  0  0  0  0  0  0  0  0  0
   -0.3490   16.4400   -1.3010 C   0  0  0  0  0  0  0  0  0  0  0  0
    0.5680   15.2060   -1.1320 C   0  0  1  0  0  0  0  0  0  0  0  0
    0.1900   14.6130    0.2620 C   0  0  0  0  0  0  0  0  0  0  0  0
    0.4880   14.1260   -2.2590 C   0  0  2  0  0  0  0  0  0  0  0  0
   -0.8830   13.4460   -2.4150 C   0  0  0  0  0  0  0  0  0  0  0  0
   -1.0770   12.2080   -1.6040 C   0  0  0  0  0  0  0  0  0  0  0  0
   -0.0990   11.5050   -1.0030 C   0  0  0  0  0  0  0  0  0  0  0  0
    1.3750   11.8860   -1.1930 C   0  0  1  0  0  0  0  0  0  0  0  0
    2.2040   10.6110   -1.5010 C   0  0  0  0  0  0  0  0  0  0  0  0
    2.0130    9.5210   -0.4510 C   0  0  0  0  0  0  0  0  0  0  0  0
    0.5430    9.1290   -0.3330 C   0  0  2  0  0  0  0  0  0  0  0  0
    0.1360    8.4960   -1.5500 O   0  0  0  0  0  0  0  0  0  0  0  0
   -0.3910   10.3340   -0.0330 C   0  0  0  0  0  0  0  0  0  0  0  0
   -0.1510   10.8310    1.4140 C   0  0  0  0  0  0  0  0  0  0  0  0
   -1.8570    9.8250   -0.0790 C   0  0  0  0  0  0  0  0  0  0  0  0
    1.6600   13.0630   -2.2230 C   0  0  1  0  0  0  0  0  0  0  0  0
    1.7850   12.4880   -3.6670 C   0  0  0  0  0  0  0  0  0  0  0  0
    3.0510   13.7170   -1.8830 C   0  0  0  0  0  0  0  0  0  0  0  0
    3.0480   14.8600   -0.8500 C   0  0  0  0  0  0  0  0  0  0  0  0
    1.9770   15.9010   -1.1880 C   0  0  2  0  0  0  0  0  0  0  0  0
    2.3430   16.5310   -2.5750 C   0  0  0  0  0  0  0  0  0  0  0  0
    4.7909   17.3827    0.2271 H   0  0  0  0  0  0  0  0  0  0  0  0
    4.0129   16.7268   -1.2532 H   0  0  0  0  0  0  0  0  0  0  0  0
    4.6809   18.3943   -1.2532 H   0  0  0  0  0  0  0  0  0  0  0  0
    2.5116   18.9587   -0.8823 H   0  0  0  0  0  0  0  0  0  0  0  0
    2.6772   19.8886    1.1255 H   0  0  0  0  0  0  0  0  0  0  0  0
    2.1854   18.2896    1.8643 H   0  0  0  0  0  0  0  0  0  0  0  0
    4.5136   17.6046    1.9893 H   0  0  0  0  0  0  0  0  0  0  0  0
    5.0204   19.1771    1.2417 H   0  0  0  0  0  0  0  0  0  0  0  0
    3.2182   19.3294    3.2828 H   0  0  0  0  0  0  0  0  0  0  0  0
    6.8877   17.6771    4.9620 H   0  0  0  0  0  0  0  0  0  0  0  0
    6.0833   17.1907    3.4314 H   0  0  0  0  0  0  0  0  0  0  0  0
    7.2775   18.5326    3.4314 H   0  0  0  0  0  0  0  0  0  0  0  0
    5.7278   18.6951    6.3537 H   0  0  0  0  0  0  0  0  0  0  0  0
    5.2468   20.3704    5.9193 H   0  0  0  0  0  0  0  0  0  0  0  0
    4.0226   19.0559    5.9193 H   0  0  0  0  0  0  0  0  0  0  0  0
    1.9217   16.6791    0.8538 H   0  0  0  0  0  0  0  0  0  0  0  0
   -0.1979   17.7601    0.4373 H   0  0  0  0  0  0  0  0  0  0  0  0
    0.3874   18.4993   -1.0688 H   0  0  0  0  0  0  0  0  0  0  0  0
   -1.3509   16.2379   -0.8944 H   0  0  0  0  0  0  0  0  0  0  0  0
   -0.4916   16.7124   -2.3572 H   0  0  0  0  0  0  0  0  0  0  0  0
    0.5989   15.2545    1.0565 H   0  0  0  0  0  0  0  0  0  0  0  0
   -0.9050   14.5661    0.3558 H   0  0  0  0  0  0  0  0  0  0  0  0
    0.6097   13.6006    0.3558 H   0  0  0  0  0  0  0  0  0  0  0  0
    0.6292   14.7257   -3.1703 H   0  0  0  0  0  0  0  0  0  0  0  0
   -1.6569   14.1700   -2.1204 H   0  0  0  0  0  0  0  0  0  0  0  0
   -0.9495   13.1336   -3.4676 H   0  0  0  0  0  0  0  0  0  0  0  0
   -2.1066   11.8388   -1.4876 H   0  0  0  0  0  0  0  0  0  0  0  0
    1.7019   12.3220   -0.2375 H   0  0  0  0  0  0  0  0  0  0  0  0
    1.8932   10.2162   -2.4796 H   0  0  0  0  0  0  0  0  0  0  0  0
    3.2667   10.8950   -1.4978 H   0  0  0  0  0  0  0  0  0  0  0  0
    2.5994    8.6363   -0.7397 H   0  0  0  0  0  0  0  0  0  0  0  0
    2.3526    9.9069    0.5215 H   0  0  0  0  0  0  0  0  0  0  0  0
    0.4525    8.4426    0.5218 H   0  0  0  0  0  0  0  0  0  0  0  0
   -0.8180    8.3200   -1.4850 H   0  0  0  0  0  0  0  0  0  0  0  0
   -0.5155   10.0761    2.1262 H   0  0  0  0  0  0  0  0  0  0  0  0
    0.9253   10.9944    1.5718 H   0  0  0  0  0  0  0  0  0  0  0  0
   -0.6923   11.7755    1.5718 H   0  0  0  0  0  0  0  0  0  0  0  0
   -2.2323    9.6947    0.9468 H   0  0  0  0  0  0  0  0  0  0  0  0
   -2.4833   10.5583   -0.6082 H   0  0  0  0  0  0  0  0  0  0  0  0
   -1.8941    8.8614   -0.6082 H   0  0  0  0  0  0  0  0  0  0  0  0
    2.0184   11.4143   -3.6152 H   0  0  0  0  0  0  0  0  0  0  0  0
    0.8347   12.6312   -4.2022 H   0  0  0  0  0  0  0  0  0  0  0  0
    2.5900   13.0128   -4.2022 H   0  0  0  0  0  0  0  0  0  0  0  0
    3.7070   12.9224   -1.4979 H   0  0  0  0  0  0  0  0  0  0  0  0
    3.3887   14.1792   -2.8223 H   0  0  0  0  0  0  0  0  0  0  0  0
    2.8429   14.4434    0.1472 H   0  0  0  0  0  0  0  0  0  0  0  0
    4.0322   15.3509   -0.8670 H   0  0  0  0  0  0  0  0  0  0  0  0
    2.8899   17.4723   -2.4173 H   0  0  0  0  0  0  0  0  0  0  0  0
    2.9747   15.8303   -3.1408 H   0  0  0  0  0  0  0  0  0  0  0  0
    1.4215   16.7327   -3.1408 H   0  0  0  0  0  0  0  0  0  0  0  0
  1  2  1  0
  2  3  1  0
  3  4  1  0
  4  5  1  0
  5  6  1  0
  6  7  1  0
  7  8  1  0
  7  9  1  0
  2 10  1  0
 10 11  1  0
 11 12  1  0
 12 13  1  0
 13 14  1  1
 13 15  1  0
 15 16  1  0
 16 17  1  0
 17 18  2  0
 18 19  1  0
 19 20  1  0
 20 21  1  0
 21 22  1  0
 22 23  1  0
 22 24  1  0
 24 25  1  0
 24 26  1  0
 19 27  1  0
 27 28  1  6
 27 29  1  0
 29 30  1  0
 30 31  1  0
 31 32  1  6
  7  5  1  0
 31 10  1  0
 31 13  1  0
 27 15  1  0
 24 18  1  0
  1 33  1  0
  1 34  1  0
  1 35  1  0
  2 36  1  6
  3 37  1  0
  3 38  1  0
  4 39  1  0
  4 40  1  0
  5 41  1  1
  8 42  1  0
  8 43  1  0
  8 44  1  0
  9 45  1  0
  9 46  1  0
  9 47  1  0
 10 48  1  1
 11 49  1  0
 11 50  1  0
 12 51  1  0
 12 52  1  0
 14 53  1  0
 14 54  1  0
 14 55  1  0
 15 56  1  6
 16 57  1  0
 16 58  1  0
 17 59  1  0
 19 60  1  1
 20 61  1  0
 20 62  1  0
 21 63  1  0
 21 64  1  0
 22 65  1  1
 23 66  1  0
 25 67  1  0
 25 68  1  0
 25 69  1  0
 26 70  1  0
 26 71  1  0
 26 72  1  0
 28 73  1  0
 28 74  1  0
 28 75  1  0
 29 76  1  0
 29 77  1  0
 30 78  1  0
 30 79  1  0
 32 80  1  0
 32 81  1  0
 32 82  1  0
M  END
>  <meeko>  (20) 
{"is_sidechain": [false], "intermolecular_energy": 2.731, "internal_energy": -0.839}

$$$$
