EPH_relaxed_0001_pdb2pqr_Repair_307_r2_0001_out
     RDKit          3D

 82 86  0  0  0  0  0  0  0  0999 V2000
    2.9420   17.4390   -1.9720 C   0  0  0  0  0  0  0  0  0  0  0  0
    1.8490   17.5350   -3.0400 C   0  0  2  0  0  0  0  0  0  0  0  0
    0.7720   18.5760   -2.6770 C   0  0  0  0  0  0  0  0  0  0  0  0
    0.8910   19.1130   -1.2480 C   0  0  0  0  0  0  0  0  0  0  0  0
   -0.3140   19.9110   -0.8530 C   0  0  2  0  0  0  0  0  0  0  0  0
   -0.4120   20.1940    0.5490 O   0  0  0  0  0  0  0  0  0  0  0  0
   -1.4420   19.3590   -0.0020 C   0  0  0  0  0  0  0  0  0  0  0  0
   -1.4200   17.9510    0.5040 C   0  0  0  0  0  0  0  0  0  0  0  0
   -2.7830   20.0210   -0.0730 C   0  0  0  0  0  0  0  0  0  0  0  0
    1.2050   16.1690   -3.2470 C   0  0  1  0  0  0  0  0  0  0  0  0
    1.0230   15.8160   -4.7470 C   0  0  0  0  0  0  0  0  0  0  0  0
    1.2380   14.2850   -4.8750 C   0  0  0  0  0  0  0  0  0  0  0  0
    1.2040   13.7640   -3.4200 C   0  0  1  0  0  0  0  0  0  0  0  0
   -0.3120   13.6490   -3.0690 C   0  0  0  0  0  0  0  0  0  0  0  0
    1.9620   12.4230   -3.1480 C   0  0  2  0  0  0  0  0  0  0  0  0
    1.4160   11.2000   -3.9050 C   0  0  0  0  0  0  0  0  0  0  0  0
    0.3630   10.4240   -3.1860 C   0  0  0  0  0  0  0  0  0  0  0  0
    0.0760   10.5230   -1.8750 C   0  0  0  0  0  0  0  0  0  0  0  0
    0.9120   11.4180   -0.9510 C   0  0  1  0  0  0  0  0  0  0  0  0
    1.2620   10.6410    0.3450 C   0  0  0  0  0  0  0  0  0  0  0  0
    0.0260   10.0780    1.0400 C   0  0  0  0  0  0  0  0  0  0  0  0
   -0.7470    9.1470    0.1090 C   0  0  2  0  0  0  0  0  0  0  0  0
    0.0510    7.9870   -0.1500 O   0  0  0  0  0  0  0  0  0  0  0  0
   -1.1450    9.8180   -1.2350 C   0  0  0  0  0  0  0  0  0  0  0  0
   -2.2430   10.8810   -0.9810 C   0  0  0  0  0  0  0  0  0  0  0  0
   -1.7930    8.7330   -2.1370 C   0  0  0  0  0  0  0  0  0  0  0  0
    2.1840   12.1030   -1.6150 C   0  0  1  0  0  0  0  0  0  0  0  0
    3.4090   11.1420   -1.5330 C   0  0  0  0  0  0  0  0  0  0  0  0
    2.5690   13.3850   -0.7850 C   0  0  0  0  0  0  0  0  0  0  0  0
    1.8740   14.7020   -1.1790 C   0  0  0  0  0  0  0  0  0  0  0  0
    1.9580   14.9350   -2.6910 C   0  0  2  0  0  0  0  0  0  0  0  0
    3.4720   15.0770   -3.0700 C   0  0  0  0  0  0  0  0  0  0  0  0
    2.4831   17.4793   -0.9731 H   0  0  0  0  0  0  0  0  0  0  0  0
    3.4855   16.4897   -2.0878 H   0  0  0  0  0  0  0  0  0  0  0  0
    3.6426   18.2791   -2.0878 H   0  0  0  0  0  0  0  0  0  0  0  0
    2.3263   17.8670   -3.9738 H   0  0  0  0  0  0  0  0  0  0  0  0
    0.8583   19.4224   -3.3742 H   0  0  0  0  0  0  0  0  0  0  0  0
   -0.2017   18.0695   -2.7497 H   0  0  0  0  0  0  0  0  0  0  0  0
    0.9989   18.2645   -0.5563 H   0  0  0  0  0  0  0  0  0  0  0  0
    1.7694   19.7735   -1.2023 H   0  0  0  0  0  0  0  0  0  0  0  0
   -0.3082   20.4398   -1.8176 H   0  0  0  0  0  0  0  0  0  0  0  0
   -1.4201   17.9566    1.6040 H   0  0  0  0  0  0  0  0  0  0  0  0
   -2.3099   17.4166    0.1400 H   0  0  0  0  0  0  0  0  0  0  0  0
   -0.5138   17.4447    0.1400 H   0  0  0  0  0  0  0  0  0  0  0  0
   -3.1555   20.2049    0.9455 H   0  0  0  0  0  0  0  0  0  0  0  0
   -2.6918   20.9776   -0.6084 H   0  0  0  0  0  0  0  0  0  0  0  0
   -3.4869   19.3669   -0.6084 H   0  0  0  0  0  0  0  0  0  0  0  0
    0.2692   16.3205   -2.6890 H   0  0  0  0  0  0  0  0  0  0  0  0
    0.0096   16.0854   -5.0794 H   0  0  0  0  0  0  0  0  0  0  0  0
    1.7386   16.3693   -5.3729 H   0  0  0  0  0  0  0  0  0  0  0  0
    0.4335   13.8282   -5.4700 H   0  0  0  0  0  0  0  0  0  0  0  0
    2.1805   14.0371   -5.3852 H   0  0  0  0  0  0  0  0  0  0  0  0
   -0.4356   13.6396   -1.9760 H   0  0  0  0  0  0  0  0  0  0  0  0
   -0.8525   14.5087   -3.4918 H   0  0  0  0  0  0  0  0  0  0  0  0
   -0.7166   12.7176   -3.4918 H   0  0  0  0  0  0  0  0  0  0  0  0
    2.9545   12.6217   -3.5786 H   0  0  0  0  0  0  0  0  0  0  0  0
    0.9896   11.5514   -4.8562 H   0  0  0  0  0  0  0  0  0  0  0  0
    2.2671   10.5146   -4.0307 H   0  0  0  0  0  0  0  0  0  0  0  0
   -0.2288    9.7105   -3.7782 H   0  0  0  0  0  0  0  0  0  0  0  0
    0.2764   12.2821   -0.7073 H   0  0  0  0  0  0  0  0  0  0  0  0
    1.9319    9.8076    0.0867 H   0  0  0  0  0  0  0  0  0  0  0  0
    1.7432   11.3465    1.0383 H   0  0  0  0  0  0  0  0  0  0  0  0
    0.3393    9.5160    1.9322 H   0  0  0  0  0  0  0  0  0  0  0  0
   -0.6294   10.9149    1.3230 H   0  0  0  0  0  0  0  0  0  0  0  0
   -1.6856    8.8782    0.6157 H   0  0  0  0  0  0  0  0  0  0  0  0
   -0.3160    7.5480   -0.9360 H   0  0  0  0  0  0  0  0  0  0  0  0
   -2.3807   11.0143    0.1022 H   0  0  0  0  0  0  0  0  0  0  0  0
   -1.9392   11.8370   -1.4324 H   0  0  0  0  0  0  0  0  0  0  0  0
   -3.1887   10.5464   -1.4324 H   0  0  0  0  0  0  0  0  0  0  0  0
   -2.2550    7.9595   -1.5059 H   0  0  0  0  0  0  0  0  0  0  0  0
   -2.5627    9.1959   -2.7721 H   0  0  0  0  0  0  0  0  0  0  0  0
   -1.0205    8.2749   -2.7721 H   0  0  0  0  0  0  0  0  0  0  0  0
    3.6542   10.9497   -0.4781 H   0  0  0  0  0  0  0  0  0  0  0  0
    3.1642   10.1925   -2.0315 H   0  0  0  0  0  0  0  0  0  0  0  0
    4.2729   11.6058   -2.0315 H   0  0  0  0  0  0  0  0  0  0  0  0
    2.3277   13.1838    0.2692 H   0  0  0  0  0  0  0  0  0  0  0  0
    3.6370   13.5506   -0.9899 H   0  0  0  0  0  0  0  0  0  0  0  0
    0.8164   14.6541   -0.8804 H   0  0  0  0  0  0  0  0  0  0  0  0
    2.3812   15.5332   -0.6672 H   0  0  0  0  0  0  0  0  0  0  0  0
    4.0759   15.1336   -2.1524 H   0  0  0  0  0  0  0  0  0  0  0  0
    3.7852   14.2043   -3.6618 H   0  0  0  0  0  0  0  0  0  0  0  0
    3.6175   15.9927   -3.6618 H   0  0  0  0  0  0  0  0  0  0  0  0
  1  2  1  0
  2  3  1  0
  3  4  1  0
  4  5  1  0
  5  6  1  0
  6  7  1  0
  7  8  1  0
  7  9  1  0
  2 10  1  0
 10 11  1  0
 11 12  1  0
 12 13  1  0
 13 14  1  1
 13 15  1  0
 15 16  1  0
 16 17  1  0
 17 18  2  0
 18 19  1  0
 19 20  1  0
 20 21  1  0
 21 22  1  0
 22 23  1  0
 22 24  1  0
 24 25  1  0
 24 26  1  0
 19 27  1  0
 27 28  1  6
 27 29  1  0
 29 30  1  0
 30 31  1  0
 31 32  1  6
  7  5  1  0
 31 10  1  0
 31 13  1  0
 27 15  1  0
 24 18  1  0
  1 33  1  0
  1 34  1  0
  1 35  1  0
  2 36  1  6
  3 37  1  0
  3 38  1  0
  4 39  1  0
  4 40  1  0
  5 41  1  6
  8 42  1  0
  8 43  1  0
  8 44  1  0
  9 45  1  0
  9 46  1  0
  9 47  1  0
 10 48  1  1
 11 49  1  0
 11 50  1  0
 12 51  1  0
 12 52  1  0
 14 53  1  0
 14 54  1  0
 14 55  1  0
 15 56  1  6
 16 57  1  0
 16 58  1  0
 17 59  1  0
 19 60  1  1
 20 61  1  0
 20 62  1  0
 21 63  1  0
 21 64  1  0
 22 65  1  1
 23 66  1  0
 25 67  1  0
 25 68  1  0
 25 69  1  0
 26 70  1  0
 26 71  1  0
 26 72  1  0
 28 73  1  0
 28 74  1  0
 28 75  1  0
 29 76  1  0
 29 77  1  0
 30 78  1  0
 30 79  1  0
 32 80  1  0
 32 81  1  0
 32 82  1  0
M  END
>  <meeko>  (1) 
{"is_sidechain": [false], "intermolecular_energy": 2.731, "internal_energy": -0.839}

$$$$
EPH_relaxed_0001_pdb2pqr_Repair_307_r2_0001_out
     RDKit          3D

 82 86  0  0  0  0  0  0  0  0999 V2000
    3.2200   17.3670   -2.4740 C   0  0  0  0  0  0  0  0  0  0  0  0
    1.8140   17.5280   -3.0600 C   0  0  2  0  0  0  0  0  0  0  0  0
    0.9090   18.4000   -2.1670 C   0  0  0  0  0  0  0  0  0  0  0  0
    0.9290   17.9960   -0.6900 C   0  0  0  0  0  0  0  0  0  0  0  0
    1.2570   19.1590    0.1980 C   0  0  2  0  0  0  0  0  0  0  0  0
    2.2930   20.0170   -0.2970 O   0  0  0  0  0  0  0  0  0  0  0  0
    2.5820   19.3120    0.9210 C   0  0  0  0  0  0  0  0  0  0  0  0
    3.6660   18.2890    0.7890 C   0  0  0  0  0  0  0  0  0  0  0  0
    2.6400   20.1940    2.1290 C   0  0  0  0  0  0  0  0  0  0  0  0
    1.1780   16.1580   -3.2660 C   0  0  1  0  0  0  0  0  0  0  0  0
    1.0110   15.7970   -4.7660 C   0  0  0  0  0  0  0  0  0  0  0  0
    1.2330   14.2670   -4.8850 C   0  0  0  0  0  0  0  0  0  0  0  0
    1.1900   13.7520   -3.4270 C   0  0  1  0  0  0  0  0  0  0  0  0
   -0.3290   13.6320   -3.0890 C   0  0  0  0  0  0  0  0  0  0  0  0
    1.9520   12.4160   -3.1430 C   0  0  2  0  0  0  0  0  0  0  0  0
    1.4180   11.1870   -3.8990 C   0  0  0  0  0  0  0  0  0  0  0  0
    0.3620   10.4090   -3.1850 C   0  0  0  0  0  0  0  0  0  0  0  0
    0.0640   10.5130   -1.8770 C   0  0  0  0  0  0  0  0  0  0  0  0
    0.8880   11.4170   -0.9510 C   0  0  1  0  0  0  0  0  0  0  0  0
    1.2300   10.6470    0.3520 C   0  0  0  0  0  0  0  0  0  0  0  0
   -0.0080   10.0810    1.0400 C   0  0  0  0  0  0  0  0  0  0  0  0
   -0.7690    9.1430    0.1070 C   0  0  2  0  0  0  0  0  0  0  0  0
    0.0360    7.9850   -0.1400 O   0  0  0  0  0  0  0  0  0  0  0  0
   -1.1590    9.8050   -1.2440 C   0  0  0  0  0  0  0  0  0  0  0  0
   -2.2640   10.8640   -1.0040 C   0  0  0  0  0  0  0  0  0  0  0  0
   -1.7940    8.7130   -2.1460 C   0  0  0  0  0  0  0  0  0  0  0  0
    2.1620   12.1040   -1.6060 C   0  0  1  0  0  0  0  0  0  0  0  0
    3.3910   11.1490   -1.5100 C   0  0  0  0  0  0  0  0  0  0  0  0
    2.5340   13.3910   -0.7800 C   0  0  0  0  0  0  0  0  0  0  0  0
    1.8370   14.7040   -1.1860 C   0  0  0  0  0  0  0  0  0  0  0  0
    1.9320   14.9300   -2.6980 C   0  0  2  0  0  0  0  0  0  0  0  0
    3.4490   15.0770   -3.0650 C   0  0  0  0  0  0  0  0  0  0  0  0
    3.1624   17.3736   -1.3755 H   0  0  0  0  0  0  0  0  0  0  0  0
    3.6515   16.4136   -2.8128 H   0  0  0  0  0  0  0  0  0  0  0  0
    3.8558   18.1982   -2.8128 H   0  0  0  0  0  0  0  0  0  0  0  0
    1.9150   18.0410   -4.0278 H   0  0  0  0  0  0  0  0  0  0  0  0
    1.2455   19.4443   -2.2460 H   0  0  0  0  0  0  0  0  0  0  0  0
   -0.1225   18.2635   -2.5238 H   0  0  0  0  0  0  0  0  0  0  0  0
   -0.0613   17.6046   -0.4139 H   0  0  0  0  0  0  0  0  0  0  0  0
    1.7070   17.2303   -0.5541 H   0  0  0  0  0  0  0  0  0  0  0  0
    0.2153   19.2166    0.5466 H   0  0  0  0  0  0  0  0  0  0  0  0
    3.9982   17.9755    1.7897 H   0  0  0  0  0  0  0  0  0  0  0  0
    3.2819   17.4165    0.2401 H   0  0  0  0  0  0  0  0  0  0  0  0
    4.5148   18.7229    0.2401 H   0  0  0  0  0  0  0  0  0  0  0  0
    2.5993   19.5749    3.0373 H   0  0  0  0  0  0  0  0  0  0  0  0
    3.5779   20.7687    2.1187 H   0  0  0  0  0  0  0  0  0  0  0  0
    1.7855   20.8866    2.1187 H   0  0  0  0  0  0  0  0  0  0  0  0
    0.2368   16.3078   -2.7167 H   0  0  0  0  0  0  0  0  0  0  0  0
   -0.0004   16.0609   -5.1088 H   0  0  0  0  0  0  0  0  0  0  0  0
    1.7302   16.3501   -5.3879 H   0  0  0  0  0  0  0  0  0  0  0  0
    0.4349   13.8042   -5.4840 H   0  0  0  0  0  0  0  0  0  0  0  0
    2.1804   14.0207   -5.3867 H   0  0  0  0  0  0  0  0  0  0  0  0
   -0.4620   13.6215   -1.9971 H   0  0  0  0  0  0  0  0  0  0  0  0
   -0.8685   14.4903   -3.5158 H   0  0  0  0  0  0  0  0  0  0  0  0
   -0.7271   12.6996   -3.5158 H   0  0  0  0  0  0  0  0  0  0  0  0
    2.9472   12.6171   -3.5663 H   0  0  0  0  0  0  0  0  0  0  0  0
    0.9981   11.5321   -4.8553 H   0  0  0  0  0  0  0  0  0  0  0  0
    2.2733   10.5050   -4.0144 H   0  0  0  0  0  0  0  0  0  0  0  0
   -0.2216    9.6900   -3.7787 H   0  0  0  0  0  0  0  0  0  0  0  0
    0.2468   12.2800   -0.7183 H   0  0  0  0  0  0  0  0  0  0  0  0
    1.9059    9.8157    0.1030 H   0  0  0  0  0  0  0  0  0  0  0  0
    1.7012   11.3586    1.0460 H   0  0  0  0  0  0  0  0  0  0  0  0
    0.3013    9.5240    1.9367 H   0  0  0  0  0  0  0  0  0  0  0  0
   -0.6695   10.9157    1.3152 H   0  0  0  0  0  0  0  0  0  0  0  0
   -1.7107    8.8735    0.6075 H   0  0  0  0  0  0  0  0  0  0  0  0
   -0.3800    7.2350    0.3170 H   0  0  0  0  0  0  0  0  0  0  0  0
   -2.4095   11.0035    0.0774 H   0  0  0  0  0  0  0  0  0  0  0  0
   -1.9621   11.8187   -1.4595 H   0  0  0  0  0  0  0  0  0  0  0  0
   -3.2050   10.5218   -1.4595 H   0  0  0  0  0  0  0  0  0  0  0  0
   -2.2470    7.9341   -1.5151 H   0  0  0  0  0  0  0  0  0  0  0  0
   -2.5689    9.1670   -2.7811 H   0  0  0  0  0  0  0  0  0  0  0  0
   -1.0161    8.2640   -2.7811 H   0  0  0  0  0  0  0  0  0  0  0  0
    3.6296   10.9636   -0.4523 H   0  0  0  0  0  0  0  0  0  0  0  0
    3.1541   10.1957   -2.0050 H   0  0  0  0  0  0  0  0  0  0  0  0
    4.2563   11.6141   -2.0050 H   0  0  0  0  0  0  0  0  0  0  0  0
    2.2846   13.1939    0.2731 H   0  0  0  0  0  0  0  0  0  0  0  0
    3.6028   13.5601   -0.9774 H   0  0  0  0  0  0  0  0  0  0  0  0
    0.7772   14.6536   -0.8955 H   0  0  0  0  0  0  0  0  0  0  0  0
    2.3371   15.5395   -0.6743 H   0  0  0  0  0  0  0  0  0  0  0  0
    4.0455   15.1348   -2.1426 H   0  0  0  0  0  0  0  0  0  0  0  0
    3.7696   14.2057   -3.6550 H   0  0  0  0  0  0  0  0  0  0  0  0
    3.5964   15.9936   -3.6550 H   0  0  0  0  0  0  0  0  0  0  0  0
  1  2  1  0
  2  3  1  0
  3  4  1  0
  4  5  1  0
  5  6  1  0
  6  7  1  0
  7  8  1  0
  7  9  1  0
  2 10  1  0
 10 11  1  0
 11 12  1  0
 12 13  1  0
 13 14  1  1
 13 15  1  0
 15 16  1  0
 16 17  1  0
 17 18  2  0
 18 19  1  0
 19 20  1  0
 20 21  1  0
 21 22  1  0
 22 23  1  0
 22 24  1  0
 24 25  1  0
 24 26  1  0
 19 27  1  0
 27 28  1  6
 27 29  1  0
 29 30  1  0
 30 31  1  0
 31 32  1  6
  7  5  1  0
 31 10  1  0
 31 13  1  0
 27 15  1  0
 24 18  1  0
  1 33  1  0
  1 34  1  0
  1 35  1  0
  2 36  1  6
  3 37  1  0
  3 38  1  0
  4 39  1  0
  4 40  1  0
  5 41  1  1
  8 42  1  0
  8 43  1  0
  8 44  1  0
  9 45  1  0
  9 46  1  0
  9 47  1  0
 10 48  1  1
 11 49  1  0
 11 50  1  0
 12 51  1  0
 12 52  1  0
 14 53  1  0
 14 54  1  0
 14 55  1  0
 15 56  1  6
 16 57  1  0
 16 58  1  0
 17 59  1  0
 19 60  1  1
 20 61  1  0
 20 62  1  0
 21 63  1  0
 21 64  1  0
 22 65  1  1
 23 66  1  0
 25 67  1  0
 25 68  1  0
 25 69  1  0
 26 70  1  0
 26 71  1  0
 26 72  1  0
 28 73  1  0
 28 74  1  0
 28 75  1  0
 29 76  1  0
 29 77  1  0
 30 78  1  0
 30 79  1  0
 32 80  1  0
 32 81  1  0
 32 82  1  0
M  END
>  <meeko>  (2) 
{"is_sidechain": [false], "intermolecular_energy": 2.731, "internal_energy": -0.839}

$$$$
EPH_relaxed_0001_pdb2pqr_Repair_307_r2_0001_out
     RDKit          3D

 82 86  0  0  0  0  0  0  0  0999 V2000
   -0.7170    8.1670   -1.5510 C   0  0  0  0  0  0  0  0  0  0  0  0
   -0.9670    9.3070   -0.5590 C   0  0  2  0  0  0  0  0  0  0  0  0
   -2.3030   10.0280   -0.8270 C   0  0  0  0  0  0  0  0  0  0  0  0
   -3.4820    9.4530   -0.0370 C   0  0  0  0  0  0  0  0  0  0  0  0
   -3.8720    8.0940   -0.5330 C   0  0  2  0  0  0  0  0  0  0  0  0
   -4.0850    8.0120   -1.9480 O   0  0  0  0  0  0  0  0  0  0  0  0
   -5.2350    7.7770   -1.1190 C   0  0  0  0  0  0  0  0  0  0  0  0
   -6.2960    8.8260   -1.2390 C   0  0  0  0  0  0  0  0  0  0  0  0
   -5.7000    6.3540   -1.1220 C   0  0  0  0  0  0  0  0  0  0  0  0
    0.1840   10.3060   -0.6150 C   0  0  1  0  0  0  0  0  0  0  0  0
    1.5740    9.6220   -0.5220 C   0  0  0  0  0  0  0  0  0  0  0  0
    2.5370   10.4430   -1.4170 C   0  0  0  0  0  0  0  0  0  0  0  0
    1.7650   11.7480   -1.7270 C   0  0  1  0  0  0  0  0  0  0  0  0
    1.9710   12.6440   -0.4660 C   0  0  0  0  0  0  0  0  0  0  0  0
    2.1700   12.4950   -3.0390 C   0  0  2  0  0  0  0  0  0  0  0  0
    3.6220   13.0030   -3.0790 C   0  0  0  0  0  0  0  0  0  0  0  0
    3.8270   14.3880   -2.5600 C   0  0  0  0  0  0  0  0  0  0  0  0
    2.8560   15.2950   -2.3460 C   0  0  0  0  0  0  0  0  0  0  0  0
    1.4010   14.9950   -2.7260 C   0  0  1  0  0  0  0  0  0  0  0  0
    0.8020   16.2100   -3.4820 C   0  0  0  0  0  0  0  0  0  0  0  0
    0.9450   17.5140   -2.7010 C   0  0  0  0  0  0  0  0  0  0  0  0
    2.4110   17.8070   -2.3930 C   0  0  2  0  0  0  0  0  0  0  0  0
    3.0950   18.0750   -3.6210 O   0  0  0  0  0  0  0  0  0  0  0  0
    3.1220   16.6480   -1.6400 C   0  0  0  0  0  0  0  0  0  0  0  0
    2.5790   16.5560   -0.1930 C   0  0  0  0  0  0  0  0  0  0  0  0
    4.6270   17.0120   -1.5170 C   0  0  0  0  0  0  0  0  0  0  0  0
    1.1510   13.6210   -3.4840 C   0  0  1  0  0  0  0  0  0  0  0  0
    1.3470   13.8170   -5.0190 C   0  0  0  0  0  0  0  0  0  0  0  0
   -0.3480   13.1860   -3.2800 C   0  0  0  0  0  0  0  0  0  0  0  0
   -0.6640   12.3480   -2.0260 C   0  0  0  0  0  0  0  0  0  0  0  0
    0.3110   11.1740   -1.8920 C   0  0  2  0  0  0  0  0  0  0  0  0
    0.1110   10.2420   -3.1360 C   0  0  0  0  0  0  0  0  0  0  0  0
   -0.5133    7.2380   -0.9983 H   0  0  0  0  0  0  0  0  0  0  0  0
   -1.6064    8.0297   -2.1836 H   0  0  0  0  0  0  0  0  0  0  0  0
    0.1482    8.4145   -2.1836 H   0  0  0  0  0  0  0  0  0  0  0  0
   -1.0271    8.8638    0.4460 H   0  0  0  0  0  0  0  0  0  0  0  0
   -2.1865   11.0875   -0.5551 H   0  0  0  0  0  0  0  0  0  0  0  0
   -2.5337    9.8914   -1.8938 H   0  0  0  0  0  0  0  0  0  0  0  0
   -3.1978    9.3775    1.0230 H   0  0  0  0  0  0  0  0  0  0  0  0
   -4.3426   10.1255   -0.1677 H   0  0  0  0  0  0  0  0  0  0  0  0
   -3.2771    7.6094    0.2552 H   0  0  0  0  0  0  0  0  0  0  0  0
   -6.6150    9.1414   -0.2346 H   0  0  0  0  0  0  0  0  0  0  0  0
   -5.8949    9.6924   -1.7853 H   0  0  0  0  0  0  0  0  0  0  0  0
   -7.1578    8.4151   -1.7853 H   0  0  0  0  0  0  0  0  0  0  0  0
   -5.8145    6.0035   -0.0856 H   0  0  0  0  0  0  0  0  0  0  0  0
   -6.6673    6.2854   -1.6413 H   0  0  0  0  0  0  0  0  0  0  0  0
   -4.9598    5.7275   -1.6413 H   0  0  0  0  0  0  0  0  0  0  0  0
   -0.0795   10.9390    0.2451 H   0  0  0  0  0  0  0  0  0  0  0  0
    1.9290    9.6254    0.5191 H   0  0  0  0  0  0  0  0  0  0  0  0
    1.5220    8.5748   -0.8545 H   0  0  0  0  0  0  0  0  0  0  0  0
    3.4722   10.6630   -0.8813 H   0  0  0  0  0  0  0  0  0  0  0  0
    2.8223    9.9002   -2.3302 H   0  0  0  0  0  0  0  0  0  0  0  0
    1.8316   12.0378    0.4413 H   0  0  0  0  0  0  0  0  0  0  0  0
    2.9886   13.0616   -0.4752 H   0  0  0  0  0  0  0  0  0  0  0  0
    1.2380   13.4641   -0.4752 H   0  0  0  0  0  0  0  0  0  0  0  0
    2.1125   11.6962   -3.7930 H   0  0  0  0  0  0  0  0  0  0  0  0
    4.2381   12.3194   -2.4764 H   0  0  0  0  0  0  0  0  0  0  0  0
    3.9059   13.0307   -4.1414 H   0  0  0  0  0  0  0  0  0  0  0  0
    4.8593   14.6929   -2.3333 H   0  0  0  0  0  0  0  0  0  0  0  0
    0.8645   14.8439   -1.7777 H   0  0  0  0  0  0  0  0  0  0  0  0
    1.3220   16.3171   -4.4454 H   0  0  0  0  0  0  0  0  0  0  0  0
   -0.2726   16.0201   -3.6209 H   0  0  0  0  0  0  0  0  0  0  0  0
    0.5308   18.3391   -3.2990 H   0  0  0  0  0  0  0  0  0  0  0  0
    0.3992   17.4161   -1.7510 H   0  0  0  0  0  0  0  0  0  0  0  0
    2.4401   18.6795   -1.7238 H   0  0  0  0  0  0  0  0  0  0  0  0
    2.9180   17.3340   -4.2240 H   0  0  0  0  0  0  0  0  0  0  0  0
    3.4060   16.6961    0.5186 H   0  0  0  0  0  0  0  0  0  0  0  0
    1.8225   17.3388   -0.0348 H   0  0  0  0  0  0  0  0  0  0  0  0
    2.1226   15.5677   -0.0348 H   0  0  0  0  0  0  0  0  0  0  0  0
    4.9024   17.0786   -0.4541 H   0  0  0  0  0  0  0  0  0  0  0  0
    5.2333   16.2346   -2.0049 H   0  0  0  0  0  0  0  0  0  0  0  0
    4.8110   17.9806   -2.0049 H   0  0  0  0  0  0  0  0  0  0  0  0
    2.1147   14.5847   -5.1955 H   0  0  0  0  0  0  0  0  0  0  0  0
    1.6673   12.8672   -5.4720 H   0  0  0  0  0  0  0  0  0  0  0  0
    0.3972   14.1373   -5.4720 H   0  0  0  0  0  0  0  0  0  0  0  0
   -0.9563   14.1012   -3.2306 H   0  0  0  0  0  0  0  0  0  0  0  0
   -0.5747   12.5270   -4.1311 H   0  0  0  0  0  0  0  0  0  0  0  0
   -0.5814   12.9880   -1.1352 H   0  0  0  0  0  0  0  0  0  0  0  0
   -1.6845   11.9480   -2.1190 H   0  0  0  0  0  0  0  0  0  0  0  0
   -0.1085    9.2191   -2.7963 H   0  0  0  0  0  0  0  0  0  0  0  0
   -0.7276   10.6148   -3.7424 H   0  0  0  0  0  0  0  0  0  0  0  0
    1.0287   10.2379   -3.7424 H   0  0  0  0  0  0  0  0  0  0  0  0
  1  2  1  0
  2  3  1  0
  3  4  1  0
  4  5  1  0
  5  6  1  0
  6  7  1  0
  7  8  1  0
  7  9  1  0
  2 10  1  0
 10 11  1  0
 11 12  1  0
 12 13  1  0
 13 14  1  1
 13 15  1  0
 15 16  1  0
 16 17  1  0
 17 18  2  0
 18 19  1  0
 19 20  1  0
 20 21  1  0
 21 22  1  0
 22 23  1  0
 22 24  1  0
 24 25  1  0
 24 26  1  0
 19 27  1  0
 27 28  1  6
 27 29  1  0
 29 30  1  0
 30 31  1  0
 31 32  1  6
  7  5  1  0
 31 10  1  0
 31 13  1  0
 27 15  1  0
 24 18  1  0
  1 33  1  0
  1 34  1  0
  1 35  1  0
  2 36  1  1
  3 37  1  0
  3 38  1  0
  4 39  1  0
  4 40  1  0
  5 41  1  1
  8 42  1  0
  8 43  1  0
  8 44  1  0
  9 45  1  0
  9 46  1  0
  9 47  1  0
 10 48  1  1
 11 49  1  0
 11 50  1  0
 12 51  1  0
 12 52  1  0
 14 53  1  0
 14 54  1  0
 14 55  1  0
 15 56  1  6
 16 57  1  0
 16 58  1  0
 17 59  1  0
 19 60  1  1
 20 61  1  0
 20 62  1  0
 21 63  1  0
 21 64  1  0
 22 65  1  1
 23 66  1  0
 25 67  1  0
 25 68  1  0
 25 69  1  0
 26 70  1  0
 26 71  1  0
 26 72  1  0
 28 73  1  0
 28 74  1  0
 28 75  1  0
 29 76  1  0
 29 77  1  0
 30 78  1  0
 30 79  1  0
 32 80  1  0
 32 81  1  0
 32 82  1  0
M  END
>  <meeko>  (3) 
{"is_sidechain": [false], "intermolecular_energy": 2.731, "internal_energy": -0.839}

$$$$
EPH_relaxed_0001_pdb2pqr_Repair_307_r2_0001_out
     RDKit          3D

 82 86  0  0  0  0  0  0  0  0999 V2000
    4.1330   18.3260    0.1480 C   0  0  0  0  0  0  0  0  0  0  0  0
    3.0310   18.7820   -0.8120 C   0  0  2  0  0  0  0  0  0  0  0  0
    2.2420   19.9870   -0.2610 C   0  0  0  0  0  0  0  0  0  0  0  0
    1.1550   19.6020    0.7460 C   0  0  0  0  0  0  0  0  0  0  0  0
   -0.1820   20.1570    0.3560 C   0  0  2  0  0  0  0  0  0  0  0  0
   -1.1520   20.1770    1.4110 O   0  0  0  0  0  0  0  0  0  0  0  0
   -1.4480   19.3220    0.2950 C   0  0  0  0  0  0  0  0  0  0  0  0
   -1.4370   17.8630    0.6260 C   0  0  0  0  0  0  0  0  0  0  0  0
   -2.5840   19.8070   -0.5510 C   0  0  0  0  0  0  0  0  0  0  0  0
    2.0800   17.6250   -1.1000 C   0  0  1  0  0  0  0  0  0  0  0  0
    0.8730   18.0480   -1.9770 C   0  0  0  0  0  0  0  0  0  0  0  0
    0.5370   16.8400   -2.8890 C   0  0  0  0  0  0  0  0  0  0  0  0
    1.3340   15.6610   -2.2830 C   0  0  1  0  0  0  0  0  0  0  0  0
    0.4650   15.1610   -1.0880 C   0  0  0  0  0  0  0  0  0  0  0  0
    1.6960   14.4960   -3.2610 C   0  0  2  0  0  0  0  0  0  0  0  0
    0.4910   13.7510   -3.8610 C   0  0  0  0  0  0  0  0  0  0  0  0
    0.0160   12.5710   -3.0780 C   0  0  0  0  0  0  0  0  0  0  0  0
    0.7020   11.9560   -2.0970 C   0  0  0  0  0  0  0  0  0  0  0  0
    2.1360   12.3820   -1.7530 C   0  0  1  0  0  0  0  0  0  0  0  0
    3.0310   11.1220   -1.6170 C   0  0  0  0  0  0  0  0  0  0  0  0
    2.4690   10.1080   -0.6250 C   0  0  0  0  0  0  0  0  0  0  0  0
    1.0660    9.6660   -1.0340 C   0  0  2  0  0  0  0  0  0  0  0  0
    1.1540    8.9260   -2.2550 O   0  0  0  0  0  0  0  0  0  0  0  0
    0.0770   10.8520   -1.2100 C   0  0  0  0  0  0  0  0  0  0  0  0
   -0.2510   11.4670    0.1730 C   0  0  0  0  0  0  0  0  0  0  0  0
   -1.2590   10.2810   -1.7590 C   0  0  0  0  0  0  0  0  0  0  0  0
    2.7770   13.4880   -2.6970 C   0  0  1  0  0  0  0  0  0  0  0  0
    3.4420   12.8100   -3.9340 C   0  0  0  0  0  0  0  0  0  0  0  0
    3.9310   14.2220   -1.9180 C   0  0  0  0  0  0  0  0  0  0  0  0
    3.5280   15.4390   -1.0640 C   0  0  0  0  0  0  0  0  0  0  0  0
    2.6540   16.4070   -1.8660 C   0  0  2  0  0  0  0  0  0  0  0  0
    3.5100   16.9440   -3.0640 C   0  0  0  0  0  0  0  0  0  0  0  0
    3.7960   18.4654    1.1858 H   0  0  0  0  0  0  0  0  0  0  0  0
    4.3540   17.2626   -0.0260 H   0  0  0  0  0  0  0  0  0  0  0  0
    5.0408   18.9224   -0.0260 H   0  0  0  0  0  0  0  0  0  0  0  0
    3.5178   19.1044   -1.7443 H   0  0  0  0  0  0  0  0  0  0  0  0
    2.9494   20.6679    0.2349 H   0  0  0  0  0  0  0  0  0  0  0  0
    1.7357   20.4582   -1.1164 H   0  0  0  0  0  0  0  0  0  0  0  0
    1.0857   18.5052    0.7942 H   0  0  0  0  0  0  0  0  0  0  0  0
    1.4291   20.0224    1.7248 H   0  0  0  0  0  0  0  0  0  0  0  0
    0.2858   20.8420   -0.3665 H   0  0  0  0  0  0  0  0  0  0  0  0
   -1.4360   17.7349    1.7185 H   0  0  0  0  0  0  0  0  0  0  0  0
   -2.3316   17.3839    0.2014 H   0  0  0  0  0  0  0  0  0  0  0  0
   -0.5353   17.3975    0.2014 H   0  0  0  0  0  0  0  0  0  0  0  0
   -3.4012   20.1559    0.0974 H   0  0  0  0  0  0  0  0  0  0  0  0
   -2.2401   20.6367   -1.1860 H   0  0  0  0  0  0  0  0  0  0  0  0
   -2.9454   18.9847   -1.1860 H   0  0  0  0  0  0  0  0  0  0  0  0
    1.8249   17.3352   -0.0700 H   0  0  0  0  0  0  0  0  0  0  0  0
    0.0101   18.2936   -1.3406 H   0  0  0  0  0  0  0  0  0  0  0  0
    1.1128   18.9395   -2.5751 H   0  0  0  0  0  0  0  0  0  0  0  0
   -0.5424   16.6287   -2.8719 H   0  0  0  0  0  0  0  0  0  0  0  0
    0.8004   17.0251   -3.9408 H   0  0  0  0  0  0  0  0  0  0  0  0
    0.9494   15.4397   -0.1405 H   0  0  0  0  0  0  0  0  0  0  0  0
   -0.5315   15.6238   -1.1404 H   0  0  0  0  0  0  0  0  0  0  0  0
    0.3643   14.0669   -1.1404 H   0  0  0  0  0  0  0  0  0  0  0  0
    2.1659   15.0295   -4.1004 H   0  0  0  0  0  0  0  0  0  0  0  0
   -0.3432   14.4634   -3.9418 H   0  0  0  0  0  0  0  0  0  0  0  0
    0.8291   13.3567   -4.8306 H   0  0  0  0  0  0  0  0  0  0  0  0
   -0.9787   12.1708   -3.3240 H   0  0  0  0  0  0  0  0  0  0  0  0
    2.0751   12.9030   -0.7861 H   0  0  0  0  0  0  0  0  0  0  0  0
    3.1149   10.6413   -2.6028 H   0  0  0  0  0  0  0  0  0  0  0  0
    4.0115   11.4486   -1.2404 H   0  0  0  0  0  0  0  0  0  0  0  0
    3.1294    9.2288   -0.5956 H   0  0  0  0  0  0  0  0  0  0  0  0
    2.4136   10.5801    0.3670 H   0  0  0  0  0  0  0  0  0  0  0  0
    0.6655    9.0431   -0.2206 H   0  0  0  0  0  0  0  0  0  0  0  0
    1.5560    9.5070   -2.9230 H   0  0  0  0  0  0  0  0  0  0  0  0
    0.1072   10.7954    0.9672 H   0  0  0  0  0  0  0  0  0  0  0  0
    0.2459   12.4438    0.2671 H   0  0  0  0  0  0  0  0  0  0  0  0
   -1.3390   11.5985    0.2671 H   0  0  0  0  0  0  0  0  0  0  0  0
   -1.9115   10.0021   -0.9185 H   0  0  0  0  0  0  0  0  0  0  0  0
   -1.7588   11.0441   -2.3737 H   0  0  0  0  0  0  0  0  0  0  0  0
   -1.0529    9.3924   -2.3737 H   0  0  0  0  0  0  0  0  0  0  0  0
    4.1744   12.0633   -3.5933 H   0  0  0  0  0  0  0  0  0  0  0  0
    2.6691   12.3153   -4.5406 H   0  0  0  0  0  0  0  0  0  0  0  0
    3.9515   13.5731   -4.5406 H   0  0  0  0  0  0  0  0  0  0  0  0
    4.4006   13.4865   -1.2484 H   0  0  0  0  0  0  0  0  0  0  0  0
    4.5939   14.6247   -2.6980 H   0  0  0  0  0  0  0  0  0  0  0  0
    2.9660   15.0912   -0.1847 H   0  0  0  0  0  0  0  0  0  0  0  0
    4.4416   15.9670   -0.7533 H   0  0  0  0  0  0  0  0  0  0  0  0
    4.3818   17.4909   -2.6756 H   0  0  0  0  0  0  0  0  0  0  0  0
    3.8518   16.0982   -3.6786 H   0  0  0  0  0  0  0  0  0  0  0  0
    2.8972   17.6198   -3.6786 H   0  0  0  0  0  0  0  0  0  0  0  0
  1  2  1  0
  2  3  1  0
  3  4  1  0
  4  5  1  0
  5  6  1  0
  6  7  1  0
  7  8  1  0
  7  9  1  0
  2 10  1  0
 10 11  1  0
 11 12  1  0
 12 13  1  0
 13 14  1  1
 13 15  1  0
 15 16  1  0
 16 17  1  0
 17 18  2  0
 18 19  1  0
 19 20  1  0
 20 21  1  0
 21 22  1  0
 22 23  1  0
 22 24  1  0
 24 25  1  0
 24 26  1  0
 19 27  1  0
 27 28  1  6
 27 29  1  0
 29 30  1  0
 30 31  1  0
 31 32  1  6
  7  5  1  0
 31 10  1  0
 31 13  1  0
 27 15  1  0
 24 18  1  0
  1 33  1  0
  1 34  1  0
  1 35  1  0
  2 36  1  6
  3 37  1  0
  3 38  1  0
  4 39  1  0
  4 40  1  0
  5 41  1  6
  8 42  1  0
  8 43  1  0
  8 44  1  0
  9 45  1  0
  9 46  1  0
  9 47  1  0
 10 48  1  1
 11 49  1  0
 11 50  1  0
 12 51  1  0
 12 52  1  0
 14 53  1  0
 14 54  1  0
 14 55  1  0
 15 56  1  6
 16 57  1  0
 16 58  1  0
 17 59  1  0
 19 60  1  1
 20 61  1  0
 20 62  1  0
 21 63  1  0
 21 64  1  0
 22 65  1  1
 23 66  1  0
 25 67  1  0
 25 68  1  0
 25 69  1  0
 26 70  1  0
 26 71  1  0
 26 72  1  0
 28 73  1  0
 28 74  1  0
 28 75  1  0
 29 76  1  0
 29 77  1  0
 30 78  1  0
 30 79  1  0
 32 80  1  0
 32 81  1  0
 32 82  1  0
M  END
>  <meeko>  (4) 
{"is_sidechain": [false], "intermolecular_energy": 2.731, "internal_energy": -0.839}

$$$$
EPH_relaxed_0001_pdb2pqr_Repair_307_r2_0001_out
     RDKit          3D

 82 86  0  0  0  0  0  0  0  0999 V2000
   -1.0790    9.0520   -2.1810 C   0  0  0  0  0  0  0  0  0  0  0  0
   -1.3740    9.3350   -0.7060 C   0  0  2  0  0  0  0  0  0  0  0  0
   -2.8870    9.4170   -0.4210 C   0  0  0  0  0  0  0  0  0  0  0  0
   -3.6080    8.0700   -0.5330 C   0  0  0  0  0  0  0  0  0  0  0  0
   -5.0800    8.2450   -0.7490 C   0  0  2  0  0  0  0  0  0  0  0  0
   -5.8740    7.0960   -0.4250 O   0  0  0  0  0  0  0  0  0  0  0  0
   -5.8660    7.4920   -1.8070 C   0  0  0  0  0  0  0  0  0  0  0  0
   -5.2030    6.5080   -2.7180 C   0  0  0  0  0  0  0  0  0  0  0  0
   -7.1660    8.0670   -2.2770 C   0  0  0  0  0  0  0  0  0  0  0  0
   -0.6940   10.6310   -0.2790 C   0  0  1  0  0  0  0  0  0  0  0  0
    0.2780   10.4300    0.9150 C   0  0  0  0  0  0  0  0  0  0  0  0
    1.4620   11.4070    0.6970 C   0  0  0  0  0  0  0  0  0  0  0  0
    0.9790   12.3620   -0.4200 C   0  0  1  0  0  0  0  0  0  0  0  0
    0.0830   13.4120    0.3090 C   0  0  0  0  0  0  0  0  0  0  0  0
    2.0950   13.0490   -1.2730 C   0  0  2  0  0  0  0  0  0  0  0  0
    3.0370   13.9780   -0.4870 C   0  0  0  0  0  0  0  0  0  0  0  0
    2.6080   15.4060   -0.4120 C   0  0  0  0  0  0  0  0  0  0  0  0
    1.6680   15.9820   -1.1840 C   0  0  0  0  0  0  0  0  0  0  0  0
    0.9970   15.2020   -2.3220 C   0  0  1  0  0  0  0  0  0  0  0  0
    0.9660   16.0770   -3.6020 C   0  0  0  0  0  0  0  0  0  0  0  0
    0.3170   17.4380   -3.3650 C   0  0  0  0  0  0  0  0  0  0  0  0
    1.0480   18.2070   -2.2670 C   0  0  2  0  0  0  0  0  0  0  0  0
    2.3600   18.5380   -2.7320 O   0  0  0  0  0  0  0  0  0  0  0  0
    1.1500   17.4190   -0.9310 C   0  0  0  0  0  0  0  0  0  0  0  0
   -0.2500   17.3230   -0.2760 C   0  0  0  0  0  0  0  0  0  0  0  0
    2.0300   18.2460    0.0440 C   0  0  0  0  0  0  0  0  0  0  0  0
    1.5670   13.7440   -2.5930 C   0  0  1  0  0  0  0  0  0  0  0  0
    2.7800   13.8200   -3.5710 C   0  0  0  0  0  0  0  0  0  0  0  0
    0.4640   12.8870   -3.3200 C   0  0  0  0  0  0  0  0  0  0  0  0
   -0.5370   12.1360   -2.4210 C   0  0  0  0  0  0  0  0  0  0  0  0
    0.1930   11.3480   -1.3280 C   0  0  2  0  0  0  0  0  0  0  0  0
    1.0850   10.2690   -2.0310 C   0  0  0  0  0  0  0  0  0  0  0  0
   -0.2871    8.2923   -2.2574 H   0  0  0  0  0  0  0  0  0  0  0  0
   -1.9907    8.6820   -2.6728 H   0  0  0  0  0  0  0  0  0  0  0  0
   -0.7472    9.9783   -2.6728 H   0  0  0  0  0  0  0  0  0  0  0  0
   -0.9728    8.4937   -0.1219 H   0  0  0  0  0  0  0  0  0  0  0  0
   -3.0279    9.8026    0.5995 H   0  0  0  0  0  0  0  0  0  0  0  0
   -3.3226   10.0795   -1.1835 H   0  0  0  0  0  0  0  0  0  0  0  0
   -3.1874    7.5101   -1.3813 H   0  0  0  0  0  0  0  0  0  0  0  0
   -3.4627    7.5241    0.4109 H   0  0  0  0  0  0  0  0  0  0  0  0
   -5.0127    9.3147   -0.5018 H   0  0  0  0  0  0  0  0  0  0  0  0
   -4.6876    5.7430   -2.1187 H   0  0  0  0  0  0  0  0  0  0  0  0
   -5.9618    6.0268   -3.3526 H   0  0  0  0  0  0  0  0  0  0  0  0
   -4.4721    7.0306   -3.3526 H   0  0  0  0  0  0  0  0  0  0  0  0
   -7.7821    8.3395   -1.4074 H   0  0  0  0  0  0  0  0  0  0  0  0
   -6.9722    8.9634   -2.8844 H   0  0  0  0  0  0  0  0  0  0  0  0
   -7.6988    7.3206   -2.8844 H   0  0  0  0  0  0  0  0  0  0  0  0
   -1.5821   11.2410   -0.0571 H   0  0  0  0  0  0  0  0  0  0  0  0
   -0.2327   10.6590    1.8620 H   0  0  0  0  0  0  0  0  0  0  0  0
    0.6294    9.3890    0.9674 H   0  0  0  0  0  0  0  0  0  0  0  0
    1.6789   11.9662    1.6191 H   0  0  0  0  0  0  0  0  0  0  0  0
    2.3905   10.8833    0.4256 H   0  0  0  0  0  0  0  0  0  0  0  0
    0.1869   13.2902    1.3973 H   0  0  0  0  0  0  0  0  0  0  0  0
    0.3986   14.4258    0.0217 H   0  0  0  0  0  0  0  0  0  0  0  0
   -0.9679   13.2598    0.0217 H   0  0  0  0  0  0  0  0  0  0  0  0
    2.7115   12.1941   -1.5877 H   0  0  0  0  0  0  0  0  0  0  0  0
    3.1155   13.5923    0.5402 H   0  0  0  0  0  0  0  0  0  0  0  0
    3.9920   13.9755   -1.0328 H   0  0  0  0  0  0  0  0  0  0  0  0
    3.1021   16.0413    0.3378 H   0  0  0  0  0  0  0  0  0  0  0  0
   -0.0301   14.9970   -1.9856 H   0  0  0  0  0  0  0  0  0  0  0  0
    1.9987   16.2340   -3.9469 H   0  0  0  0  0  0  0  0  0  0  0  0
    0.3641   15.5466   -4.3546 H   0  0  0  0  0  0  0  0  0  0  0  0
    0.3521   18.0208   -4.2972 H   0  0  0  0  0  0  0  0  0  0  0  0
   -0.7248   17.2801   -3.0492 H   0  0  0  0  0  0  0  0  0  0  0  0
    0.4622   19.1130   -2.0523 H   0  0  0  0  0  0  0  0  0  0  0  0
    2.3740   18.4030   -3.6950 H   0  0  0  0  0  0  0  0  0  0  0  0
   -0.1439   17.3303    0.8188 H   0  0  0  0  0  0  0  0  0  0  0  0
   -0.8617   18.1813   -0.5908 H   0  0  0  0  0  0  0  0  0  0  0  0
   -0.7388   16.3892   -0.5908 H   0  0  0  0  0  0  0  0  0  0  0  0
    1.7631   17.9952    1.0813 H   0  0  0  0  0  0  0  0  0  0  0  0
    3.0903   18.0100   -0.1291 H   0  0  0  0  0  0  0  0  0  0  0  0
    1.8602   19.3189   -0.1291 H   0  0  0  0  0  0  0  0  0  0  0  0
    3.7140   13.8785   -2.9929 H   0  0  0  0  0  0  0  0  0  0  0  0
    2.7968   12.9211   -4.2049 H   0  0  0  0  0  0  0  0  0  0  0  0
    2.6845   14.7139   -4.2049 H   0  0  0  0  0  0  0  0  0  0  0  0
   -0.1128   13.5656   -3.9656 H   0  0  0  0  0  0  0  0  0  0  0  0
    1.0167   12.1006   -3.8548 H   0  0  0  0  0  0  0  0  0  0  0  0
   -1.2135   12.8638   -1.9492 H   0  0  0  0  0  0  0  0  0  0  0  0
   -1.1059   11.4292   -3.0430 H   0  0  0  0  0  0  0  0  0  0  0  0
    1.5903    9.6578   -1.2687 H   0  0  0  0  0  0  0  0  0  0  0  0
    0.4533    9.6235   -2.6589 H   0  0  0  0  0  0  0  0  0  0  0  0
    1.8377   10.7681   -2.6589 H   0  0  0  0  0  0  0  0  0  0  0  0
  1  2  1  0
  2  3  1  0
  3  4  1  0
  4  5  1  0
  5  6  1  0
  6  7  1  0
  7  8  1  0
  7  9  1  0
  2 10  1  0
 10 11  1  0
 11 12  1  0
 12 13  1  0
 13 14  1  1
 13 15  1  0
 15 16  1  0
 16 17  1  0
 17 18  2  0
 18 19  1  0
 19 20  1  0
 20 21  1  0
 21 22  1  0
 22 23  1  0
 22 24  1  0
 24 25  1  0
 24 26  1  0
 19 27  1  0
 27 28  1  6
 27 29  1  0
 29 30  1  0
 30 31  1  0
 31 32  1  6
  7  5  1  0
 31 10  1  0
 31 13  1  0
 27 15  1  0
 24 18  1  0
  1 33  1  0
  1 34  1  0
  1 35  1  0
  2 36  1  1
  3 37  1  0
  3 38  1  0
  4 39  1  0
  4 40  1  0
  5 41  1  1
  8 42  1  0
  8 43  1  0
  8 44  1  0
  9 45  1  0
  9 46  1  0
  9 47  1  0
 10 48  1  1
 11 49  1  0
 11 50  1  0
 12 51  1  0
 12 52  1  0
 14 53  1  0
 14 54  1  0
 14 55  1  0
 15 56  1  6
 16 57  1  0
 16 58  1  0
 17 59  1  0
 19 60  1  1
 20 61  1  0
 20 62  1  0
 21 63  1  0
 21 64  1  0
 22 65  1  1
 23 66  1  0
 25 67  1  0
 25 68  1  0
 25 69  1  0
 26 70  1  0
 26 71  1  0
 26 72  1  0
 28 73  1  0
 28 74  1  0
 28 75  1  0
 29 76  1  0
 29 77  1  0
 30 78  1  0
 30 79  1  0
 32 80  1  0
 32 81  1  0
 32 82  1  0
M  END
>  <meeko>  (5) 
{"is_sidechain": [false], "intermolecular_energy": 2.731, "internal_energy": -0.839}

$$$$
EPH_relaxed_0001_pdb2pqr_Repair_307_r2_0001_out
     RDKit          3D

 82 86  0  0  0  0  0  0  0  0999 V2000
    2.3540   20.1940   -0.8650 C   0  0  0  0  0  0  0  0  0  0  0  0
    2.2320   19.1610    0.2580 C   0  0  2  0  0  0  0  0  0  0  0  0
    3.6090   18.7150    0.7890 C   0  0  0  0  0  0  0  0  0  0  0  0
    3.8370   19.0510    2.2650 C   0  0  0  0  0  0  0  0  0  0  0  0
    5.2940   19.2190    2.5760 C   0  0  2  0  0  0  0  0  0  0  0  0
    5.8750   18.1420    3.3230 O   0  0  0  0  0  0  0  0  0  0  0  0
    5.8320   19.4180    3.9810 C   0  0  0  0  0  0  0  0  0  0  0  0
    4.9200   19.4610    5.1670 C   0  0  0  0  0  0  0  0  0  0  0  0
    7.1760   20.0550    4.1490 C   0  0  0  0  0  0  0  0  0  0  0  0
    1.4450   17.9510   -0.2320 C   0  0  1  0  0  0  0  0  0  0  0  0
    0.2710   18.3410   -1.1690 C   0  0  0  0  0  0  0  0  0  0  0  0
    0.1500   17.2140   -2.2270 C   0  0  0  0  0  0  0  0  0  0  0  0
    1.0250   16.0650   -1.6750 C   0  0  1  0  0  0  0  0  0  0  0  0
    0.1250   15.3460   -0.6210 C   0  0  0  0  0  0  0  0  0  0  0  0
    1.5930   15.0610   -2.7300 C   0  0  2  0  0  0  0  0  0  0  0  0
    0.5330   14.2650   -3.5110 C   0  0  0  0  0  0  0  0  0  0  0  0
    0.1350   12.9620   -2.9000 C   0  0  0  0  0  0  0  0  0  0  0  0
    0.8060   12.3170   -1.9280 C   0  0  0  0  0  0  0  0  0  0  0  0
    2.1490   12.8480   -1.4120 C   0  0  1  0  0  0  0  0  0  0  0  0
    3.1680   11.6820   -1.3240 C   0  0  0  0  0  0  0  0  0  0  0  0
    2.6480   10.5100   -0.4970 C   0  0  0  0  0  0  0  0  0  0  0  0
    1.3420    9.9720   -1.0760 C   0  0  2  0  0  0  0  0  0  0  0  0
    1.6100    9.3870   -2.3540 O   0  0  0  0  0  0  0  0  0  0  0  0
    0.2410   11.0600   -1.2200 C   0  0  0  0  0  0  0  0  0  0  0  0
   -0.2640   11.4790    0.1830 C   0  0  0  0  0  0  0  0  0  0  0  0
   -0.9730   10.4190   -1.9450 C   0  0  0  0  0  0  0  0  0  0  0  0
    2.7340   14.1140   -2.1750 C   0  0  1  0  0  0  0  0  0  0  0  0
    3.5690   13.6530   -3.4080 C   0  0  0  0  0  0  0  0  0  0  0  0
    3.7310   14.8730   -1.2220 C   0  0  0  0  0  0  0  0  0  0  0  0
    3.1250   15.9380   -0.2880 C   0  0  0  0  0  0  0  0  0  0  0  0
    2.2130   16.8930   -1.0640 C   0  0  2  0  0  0  0  0  0  0  0  0
    3.0960   17.6470   -2.1160 C   0  0  0  0  0  0  0  0  0  0  0  0
    2.4725   21.1970   -0.4293 H   0  0  0  0  0  0  0  0  0  0  0  0
    3.2306   19.9583   -1.4864 H   0  0  0  0  0  0  0  0  0  0  0  0
    1.4467   20.1690   -1.4864 H   0  0  0  0  0  0  0  0  0  0  0  0
    1.6967   19.6396    1.0913 H   0  0  0  0  0  0  0  0  0  0  0  0
    3.6934   17.6254    0.6637 H   0  0  0  0  0  0  0  0  0  0  0  0
    4.3689   19.2635    0.2131 H   0  0  0  0  0  0  0  0  0  0  0  0
    3.3113   19.9875    2.5029 H   0  0  0  0  0  0  0  0  0  0  0  0
    3.4507   18.2178    2.8704 H   0  0  0  0  0  0  0  0  0  0  0  0
    5.4543   19.7725    1.6390 H   0  0  0  0  0  0  0  0  0  0  0  0
    5.5175   19.4328    6.0902 H   0  0  0  0  0  0  0  0  0  0  0  0
    4.3284   20.3880    5.1412 H   0  0  0  0  0  0  0  0  0  0  0  0
    4.2438   18.5937    5.1412 H   0  0  0  0  0  0  0  0  0  0  0  0
    7.4000   20.1612    5.2207 H   0  0  0  0  0  0  0  0  0  0  0  0
    7.9425   19.4244    3.6749 H   0  0  0  0  0  0  0  0  0  0  0  0
    7.1732   21.0476    3.6749 H   0  0  0  0  0  0  0  0  0  0  0  0
    1.1434   17.5231    0.7354 H   0  0  0  0  0  0  0  0  0  0  0  0
   -0.6627   18.4217   -0.5930 H   0  0  0  0  0  0  0  0  0  0  0  0
    0.4542   19.3143   -1.6477 H   0  0  0  0  0  0  0  0  0  0  0  0
   -0.8960   16.8899   -2.3312 H   0  0  0  0  0  0  0  0  0  0  0  0
    0.4744   17.5426   -3.2254 H   0  0  0  0  0  0  0  0  0  0  0  0
    0.4606   15.6141    0.3917 H   0  0  0  0  0  0  0  0  0  0  0  0
   -0.9204   15.6604   -0.7561 H   0  0  0  0  0  0  0  0  0  0  0  0
    0.2008   14.2570   -0.7561 H   0  0  0  0  0  0  0  0  0  0  0  0
    2.0632   15.7319   -3.4641 H   0  0  0  0  0  0  0  0  0  0  0  0
   -0.3681   14.8903   -3.5948 H   0  0  0  0  0  0  0  0  0  0  0  0
    0.9906   14.0191   -4.4806 H   0  0  0  0  0  0  0  0  0  0  0  0
   -0.7843   12.4894   -3.2762 H   0  0  0  0  0  0  0  0  0  0  0  0
    1.9514   13.2473   -0.4063 H   0  0  0  0  0  0  0  0  0  0  0  0
    3.3850   11.3261   -2.3420 H   0  0  0  0  0  0  0  0  0  0  0  0
    4.0714   12.0656   -0.8273 H   0  0  0  0  0  0  0  0  0  0  0  0
    3.3999    9.7071   -0.4975 H   0  0  0  0  0  0  0  0  0  0  0  0
    2.4600   10.8596    0.5289 H   0  0  0  0  0  0  0  0  0  0  0  0
    0.9527    9.2233   -0.3703 H   0  0  0  0  0  0  0  0  0  0  0  0
    2.5630    9.4800   -2.5260 H   0  0  0  0  0  0  0  0  0  0  0  0
    0.3394   10.9783    0.9545 H   0  0  0  0  0  0  0  0  0  0  0  0
   -0.1715   12.5693    0.2955 H   0  0  0  0  0  0  0  0  0  0  0  0
   -1.3185   11.1869    0.2955 H   0  0  0  0  0  0  0  0  0  0  0  0
   -1.6880   10.0415   -1.1992 H   0  0  0  0  0  0  0  0  0  0  0  0
   -1.4649   11.1749   -2.5748 H   0  0  0  0  0  0  0  0  0  0  0  0
   -0.6262    9.5864   -2.5748 H   0  0  0  0  0  0  0  0  0  0  0  0
    4.4835   13.1481   -3.0635 H   0  0  0  0  0  0  0  0  0  0  0  0
    2.9722   12.9565   -4.0153 H   0  0  0  0  0  0  0  0  0  0  0  0
    3.8404   14.5291   -4.0153 H   0  0  0  0  0  0  0  0  0  0  0  0
    4.2263   14.1203   -0.5911 H   0  0  0  0  0  0  0  0  0  0  0  0
    4.4038   15.4277   -1.8925 H   0  0  0  0  0  0  0  0  0  0  0  0
    2.5378   15.4371    0.4958 H   0  0  0  0  0  0  0  0  0  0  0  0
    3.9446   16.5206    0.1579 H   0  0  0  0  0  0  0  0  0  0  0  0
    3.8322   18.2756   -1.5936 H   0  0  0  0  0  0  0  0  0  0  0  0
    3.6211   16.9143   -2.7465 H   0  0  0  0  0  0  0  0  0  0  0  0
    2.4546   18.2804   -2.7465 H   0  0  0  0  0  0  0  0  0  0  0  0
  1  2  1  0
  2  3  1  0
  3  4  1  0
  4  5  1  0
  5  6  1  0
  6  7  1  0
  7  8  1  0
  7  9  1  0
  2 10  1  0
 10 11  1  0
 11 12  1  0
 12 13  1  0
 13 14  1  1
 13 15  1  0
 15 16  1  0
 16 17  1  0
 17 18  2  0
 18 19  1  0
 19 20  1  0
 20 21  1  0
 21 22  1  0
 22 23  1  0
 22 24  1  0
 24 25  1  0
 24 26  1  0
 19 27  1  0
 27 28  1  6
 27 29  1  0
 29 30  1  0
 30 31  1  0
 31 32  1  6
  7  5  1  0
 31 10  1  0
 31 13  1  0
 27 15  1  0
 24 18  1  0
  1 33  1  0
  1 34  1  0
  1 35  1  0
  2 36  1  1
  3 37  1  0
  3 38  1  0
  4 39  1  0
  4 40  1  0
  5 41  1  6
  8 42  1  0
  8 43  1  0
  8 44  1  0
  9 45  1  0
  9 46  1  0
  9 47  1  0
 10 48  1  1
 11 49  1  0
 11 50  1  0
 12 51  1  0
 12 52  1  0
 14 53  1  0
 14 54  1  0
 14 55  1  0
 15 56  1  6
 16 57  1  0
 16 58  1  0
 17 59  1  0
 19 60  1  1
 20 61  1  0
 20 62  1  0
 21 63  1  0
 21 64  1  0
 22 65  1  1
 23 66  1  0
 25 67  1  0
 25 68  1  0
 25 69  1  0
 26 70  1  0
 26 71  1  0
 26 72  1  0
 28 73  1  0
 28 74  1  0
 28 75  1  0
 29 76  1  0
 29 77  1  0
 30 78  1  0
 30 79  1  0
 32 80  1  0
 32 81  1  0
 32 82  1  0
M  END
>  <meeko>  (6) 
{"is_sidechain": [false], "intermolecular_energy": 2.731, "internal_energy": -0.839}

$$$$
EPH_relaxed_0001_pdb2pqr_Repair_307_r2_0001_out
     RDKit          3D

 82 86  0  0  0  0  0  0  0  0999 V2000
    4.7610   17.0560   -1.9730 C   0  0  0  0  0  0  0  0  0  0  0  0
    3.3920   17.7080   -2.1840 C   0  0  2  0  0  0  0  0  0  0  0  0
    3.2080   18.9670   -1.3130 C   0  0  0  0  0  0  0  0  0  0  0  0
    2.3000   18.7490   -0.1000 C   0  0  0  0  0  0  0  0  0  0  0  0
    1.1530   19.7140   -0.0850 C   0  0  2  0  0  0  0  0  0  0  0  0
    0.5630   19.9220    1.2050 O   0  0  0  0  0  0  0  0  0  0  0  0
   -0.2780   19.3090    0.2140 C   0  0  0  0  0  0  0  0  0  0  0  0
   -0.6400   17.8890    0.5170 C   0  0  0  0  0  0  0  0  0  0  0  0
   -1.3870   20.1930   -0.2660 C   0  0  0  0  0  0  0  0  0  0  0  0
    2.2860   16.7030   -1.8860 C   0  0  1  0  0  0  0  0  0  0  0  0
    0.8860   17.2060   -2.3280 C   0  0  0  0  0  0  0  0  0  0  0  0
    0.0970   15.9630   -2.8140 C   0  0  0  0  0  0  0  0  0  0  0  0
    0.9350   14.7550   -2.3300 C   0  0  1  0  0  0  0  0  0  0  0  0
    0.5450   14.5730   -0.8300 C   0  0  0  0  0  0  0  0  0  0  0  0
    0.7630   13.4270   -3.1370 C   0  0  2  0  0  0  0  0  0  0  0  0
   -0.6530   12.8250   -3.1090 C   0  0  0  0  0  0  0  0  0  0  0  0
   -0.9130   11.8570   -2.0030 C   0  0  0  0  0  0  0  0  0  0  0  0
    0.0290   11.2690   -1.2410 C   0  0  0  0  0  0  0  0  0  0  0  0
    1.5210   11.4860   -1.5250 C   0  0  1  0  0  0  0  0  0  0  0  0
    2.2580   10.1220   -1.4920 C   0  0  0  0  0  0  0  0  0  0  0  0
    2.0170    9.3580   -0.1930 C   0  0  0  0  0  0  0  0  0  0  0  0
    0.5260    9.1110    0.0250 C   0  0  2  0  0  0  0  0  0  0  0  0
    0.0550    8.2130   -0.9850 O   0  0  0  0  0  0  0  0  0  0  0  0
   -0.3210   10.4140    0.0010 C   0  0  0  0  0  0  0  0  0  0  0  0
   -0.0210   11.2520    1.2690 C   0  0  0  0  0  0  0  0  0  0  0  0
   -1.8180   10.0120    0.0910 C   0  0  0  0  0  0  0  0  0  0  0  0
    1.8620   12.3330   -2.8260 C   0  0  1  0  0  0  0  0  0  0  0  0
    1.9220   11.3950   -4.0710 C   0  0  0  0  0  0  0  0  0  0  0  0
    3.3000   12.9560   -2.6710 C   0  0  0  0  0  0  0  0  0  0  0  0
    3.3910   14.3260   -1.9710 C   0  0  0  0  0  0  0  0  0  0  0  0
    2.3850   15.3150   -2.5670 C   0  0  2  0  0  0  0  0  0  0  0  0
    2.7650   15.5350   -4.0710 C   0  0  0  0  0  0  0  0  0  0  0  0
    4.9598   16.9613   -0.8953 H   0  0  0  0  0  0  0  0  0  0  0  0
    4.7672   16.0582   -2.4361 H   0  0  0  0  0  0  0  0  0  0  0  0
    5.5396   17.6800   -2.4361 H   0  0  0  0  0  0  0  0  0  0  0  0
    3.3345   18.0230   -3.2364 H   0  0  0  0  0  0  0  0  0  0  0  0
    4.1968   19.2880   -0.9534 H   0  0  0  0  0  0  0  0  0  0  0  0
    2.7240   19.7267   -1.9444 H   0  0  0  0  0  0  0  0  0  0  0  0
    1.9028   17.7237   -0.1318 H   0  0  0  0  0  0  0  0  0  0  0  0
    2.8974   18.9125    0.8091 H   0  0  0  0  0  0  0  0  0  0  0  0
    1.5990   20.2931   -0.9070 H   0  0  0  0  0  0  0  0  0  0  0  0
   -0.6768   17.7445    1.6069 H   0  0  0  0  0  0  0  0  0  0  0  0
   -1.6249   17.6612    0.0834 H   0  0  0  0  0  0  0  0  0  0  0  0
    0.1157   17.2174    0.0834 H   0  0  0  0  0  0  0  0  0  0  0  0
   -1.9186   20.6167    0.5988 H   0  0  0  0  0  0  0  0  0  0  0  0
   -0.9688   21.0082   -0.8747 H   0  0  0  0  0  0  0  0  0  0  0  0
   -2.0884   19.6035   -0.8747 H   0  0  0  0  0  0  0  0  0  0  0  0
    2.4188   16.5994   -0.7990 H   0  0  0  0  0  0  0  0  0  0  0  0
    0.3672   17.6761   -1.4796 H   0  0  0  0  0  0  0  0  0  0  0  0
    0.9704   17.9574   -3.1269 H   0  0  0  0  0  0  0  0  0  0  0  0
   -0.9082   15.9421   -2.3677 H   0  0  0  0  0  0  0  0  0  0  0  0
   -0.0473   15.9606   -3.9045 H   0  0  0  0  0  0  0  0  0  0  0  0
    1.3567   14.9518   -0.1915 H   0  0  0  0  0  0  0  0  0  0  0  0
   -0.3781   15.1333   -0.6206 H   0  0  0  0  0  0  0  0  0  0  0  0
    0.3815   13.5056   -0.6206 H   0  0  0  0  0  0  0  0  0  0  0  0
    0.9264   13.7580   -4.1732 H   0  0  0  0  0  0  0  0  0  0  0  0
   -1.3720   13.6519   -3.0128 H   0  0  0  0  0  0  0  0  0  0  0  0
   -0.7595   12.2547   -4.0436 H   0  0  0  0  0  0  0  0  0  0  0  0
   -1.9623   11.6025   -1.7926 H   0  0  0  0  0  0  0  0  0  0  0  0
    1.8946   12.1311   -0.7161 H   0  0  0  0  0  0  0  0  0  0  0  0
    1.9024    9.5086   -2.3330 H   0  0  0  0  0  0  0  0  0  0  0  0
    3.3369   10.3235   -1.5657 H   0  0  0  0  0  0  0  0  0  0  0  0
    2.5389    8.3909   -0.2418 H   0  0  0  0  0  0  0  0  0  0  0  0
    2.3999    9.9593    0.6447 H   0  0  0  0  0  0  0  0  0  0  0  0
    0.4070    8.6779    1.0291 H   0  0  0  0  0  0  0  0  0  0  0  0
   -0.6300    7.6520   -0.5830 H   0  0  0  0  0  0  0  0  0  0  0  0
   -0.2361   10.6512    2.1650 H   0  0  0  0  0  0  0  0  0  0  0  0
    1.0386   11.5472    1.2712 H   0  0  0  0  0  0  0  0  0  0  0  0
   -0.6525   12.1526    1.2712 H   0  0  0  0  0  0  0  0  0  0  0  0
   -2.1135    9.9327    1.1476 H   0  0  0  0  0  0  0  0  0  0  0  0
   -2.4335   10.7767   -0.4054 H   0  0  0  0  0  0  0  0  0  0  0  0
   -1.9676    9.0419   -0.4054 H   0  0  0  0  0  0  0  0  0  0  0  0
    1.9889   10.3485   -3.7388 H   0  0  0  0  0  0  0  0  0  0  0  0
    1.0134   11.5302   -4.6761 H   0  0  0  0  0  0  0  0  0  0  0  0
    2.8060   11.6449   -4.6761 H   0  0  0  0  0  0  0  0  0  0  0  0
    3.9100   12.2458   -2.0935 H   0  0  0  0  0  0  0  0  0  0  0  0
    3.6495   13.1337   -3.6988 H   0  0  0  0  0  0  0  0  0  0  0  0
    3.1774   14.1974   -0.8996 H   0  0  0  0  0  0  0  0  0  0  0  0
    4.4049   14.7271   -2.1165 H   0  0  0  0  0  0  0  0  0  0  0  0
    3.7155   16.0853   -4.1323 H   0  0  0  0  0  0  0  0  0  0  0  0
    2.8732   14.5598   -4.5683 H   0  0  0  0  0  0  0  0  0  0  0  0
    1.9731   16.1144   -4.5683 H   0  0  0  0  0  0  0  0  0  0  0  0
  1  2  1  0
  2  3  1  0
  3  4  1  0
  4  5  1  0
  5  6  1  0
  6  7  1  0
  7  8  1  0
  7  9  1  0
  2 10  1  0
 10 11  1  0
 11 12  1  0
 12 13  1  0
 13 14  1  1
 13 15  1  0
 15 16  1  0
 16 17  1  0
 17 18  2  0
 18 19  1  0
 19 20  1  0
 20 21  1  0
 21 22  1  0
 22 23  1  0
 22 24  1  0
 24 25  1  0
 24 26  1  0
 19 27  1  0
 27 28  1  6
 27 29  1  0
 29 30  1  0
 30 31  1  0
 31 32  1  6
  7  5  1  0
 31 10  1  0
 31 13  1  0
 27 15  1  0
 24 18  1  0
  1 33  1  0
  1 34  1  0
  1 35  1  0
  2 36  1  6
  3 37  1  0
  3 38  1  0
  4 39  1  0
  4 40  1  0
  5 41  1  6
  8 42  1  0
  8 43  1  0
  8 44  1  0
  9 45  1  0
  9 46  1  0
  9 47  1  0
 10 48  1  1
 11 49  1  0
 11 50  1  0
 12 51  1  0
 12 52  1  0
 14 53  1  0
 14 54  1  0
 14 55  1  0
 15 56  1  6
 16 57  1  0
 16 58  1  0
 17 59  1  0
 19 60  1  1
 20 61  1  0
 20 62  1  0
 21 63  1  0
 21 64  1  0
 22 65  1  1
 23 66  1  0
 25 67  1  0
 25 68  1  0
 25 69  1  0
 26 70  1  0
 26 71  1  0
 26 72  1  0
 28 73  1  0
 28 74  1  0
 28 75  1  0
 29 76  1  0
 29 77  1  0
 30 78  1  0
 30 79  1  0
 32 80  1  0
 32 81  1  0
 32 82  1  0
M  END
>  <meeko>  (7) 
{"is_sidechain": [false], "intermolecular_energy": 2.731, "internal_energy": -0.839}

$$$$
EPH_relaxed_0001_pdb2pqr_Repair_307_r2_0001_out
     RDKit          3D

 82 86  0  0  0  0  0  0  0  0999 V2000
   -3.2310    7.4640   -2.8760 C   0  0  0  0  0  0  0  0  0  0  0  0
   -3.2390    7.8140   -1.3850 C   0  0  2  0  0  0  0  0  0  0  0  0
   -4.6620    7.8040   -0.7940 C   0  0  0  0  0  0  0  0  0  0  0  0
   -5.6880    7.0790   -1.6700 C   0  0  0  0  0  0  0  0  0  0  0  0
   -6.9070    6.6910   -0.8910 C   0  0  2  0  0  0  0  0  0  0  0  0
   -7.7390    5.7120   -1.5280 O   0  0  0  0  0  0  0  0  0  0  0  0
   -8.3220    7.0110   -1.3360 C   0  0  0  0  0  0  0  0  0  0  0  0
   -8.5900    7.7520   -2.6090 C   0  0  0  0  0  0  0  0  0  0  0  0
   -9.4080    7.0390   -0.3060 C   0  0  0  0  0  0  0  0  0  0  0  0
   -2.5940    9.1780   -1.1690 C   0  0  1  0  0  0  0  0  0  0  0  0
   -2.9130    9.7740    0.2280 C   0  0  0  0  0  0  0  0  0  0  0  0
   -1.6540   10.5580    0.6790 C   0  0  0  0  0  0  0  0  0  0  0  0
   -0.7860   10.6670   -0.5970 C   0  0  1  0  0  0  0  0  0  0  0  0
   -1.3960   11.8600   -1.3970 C   0  0  0  0  0  0  0  0  0  0  0  0
    0.7510   10.8480   -0.3730 C   0  0  2  0  0  0  0  0  0  0  0  0
    1.1560   12.1370    0.3620 C   0  0  0  0  0  0  0  0  0  0  0  0
    1.4300   13.3130   -0.5160 C   0  0  0  0  0  0  0  0  0  0  0  0
    1.6320   13.2660   -1.8460 C   0  0  0  0  0  0  0  0  0  0  0  0
    1.6930   11.9230   -2.5860 C   0  0  1  0  0  0  0  0  0  0  0  0
    2.9130   11.9150   -3.5450 C   0  0  0  0  0  0  0  0  0  0  0  0
    2.9160   13.1070   -4.4970 C   0  0  0  0  0  0  0  0  0  0  0  0
    2.9140   14.4230   -3.7240 C   0  0  2  0  0  0  0  0  0  0  0  0
    4.1570   14.5490   -3.0250 O   0  0  0  0  0  0  0  0  0  0  0  0
    1.7350   14.5410   -2.7180 C   0  0  0  0  0  0  0  0  0  0  0  0
    0.4050   14.7080   -3.4930 C   0  0  0  0  0  0  0  0  0  0  0  0
    1.9300   15.8490   -1.9050 C   0  0  0  0  0  0  0  0  0  0  0  0
    1.6260   10.6240   -1.6730 C   0  0  1  0  0  0  0  0  0  0  0  0
    3.0570   10.2420   -1.1860 C   0  0  0  0  0  0  0  0  0  0  0  0
    1.1130    9.4130   -2.5380 C   0  0  0  0  0  0  0  0  0  0  0  0
   -0.4120    9.2160   -2.6230 C   0  0  0  0  0  0  0  0  0  0  0  0
   -1.0480    9.2520   -1.2300 C   0  0  2  0  0  0  0  0  0  0  0  0
   -0.4690    8.0490   -0.4090 C   0  0  0  0  0  0  0  0  0  0  0  0
   -3.2060    6.3708   -2.9959 H   0  0  0  0  0  0  0  0  0  0  0  0
   -4.1385    7.8644   -3.3515 H   0  0  0  0  0  0  0  0  0  0  0  0
   -2.3427    7.9054   -3.3515 H   0  0  0  0  0  0  0  0  0  0  0  0
   -2.6589    7.0409   -0.8598 H   0  0  0  0  0  0  0  0  0  0  0  0
   -4.6275    7.3049    0.1857 H   0  0  0  0  0  0  0  0  0  0  0  0
   -4.9865    8.8524   -0.7201 H   0  0  0  0  0  0  0  0  0  0  0  0
   -5.9878    7.7447   -2.4928 H   0  0  0  0  0  0  0  0  0  0  0  0
   -5.2212    6.1606   -2.0556 H   0  0  0  0  0  0  0  0  0  0  0  0
   -6.3785    6.8519    0.0602 H   0  0  0  0  0  0  0  0  0  0  0  0
   -8.9556    8.7627   -2.3749 H   0  0  0  0  0  0  0  0  0  0  0  0
   -7.6611    7.8243   -3.1937 H   0  0  0  0  0  0  0  0  0  0  0  0
   -9.3503    7.2134   -3.1937 H   0  0  0  0  0  0  0  0  0  0  0  0
   -8.9607    7.0275    0.6989 H   0  0  0  0  0  0  0  0  0  0  0  0
  -10.0075    7.9529   -0.4300 H   0  0  0  0  0  0  0  0  0  0  0  0
  -10.0538    6.1572   -0.4300 H   0  0  0  0  0  0  0  0  0  0  0  0
   -3.0301    9.7248   -2.0180 H   0  0  0  0  0  0  0  0  0  0  0  0
   -3.7774   10.4512    0.1623 H   0  0  0  0  0  0  0  0  0  0  0  0
   -3.1626    8.9806    0.9478 H   0  0  0  0  0  0  0  0  0  0  0  0
   -1.9298   11.5569    1.0479 H   0  0  0  0  0  0  0  0  0  0  0  0
   -1.1239   10.0585    1.5033 H   0  0  0  0  0  0  0  0  0  0  0  0
   -1.7814   12.6137   -0.6945 H   0  0  0  0  0  0  0  0  0  0  0  0
   -0.6186   12.3125   -2.0302 H   0  0  0  0  0  0  0  0  0  0  0  0
   -2.2180   11.4947   -2.0302 H   0  0  0  0  0  0  0  0  0  0  0  0
    0.9875   10.0246    0.3169 H   0  0  0  0  0  0  0  0  0  0  0  0
    0.3398   12.4078    1.0479 H   0  0  0  0  0  0  0  0  0  0  0  0
    2.1039   11.9111    0.8723 H   0  0  0  0  0  0  0  0  0  0  0  0
    1.4702   14.3016   -0.0353 H   0  0  0  0  0  0  0  0  0  0  0  0
    0.7612   11.8534   -3.1665 H   0  0  0  0  0  0  0  0  0  0  0  0
    3.8341   11.9411   -2.9442 H   0  0  0  0  0  0  0  0  0  0  0  0
    2.8531   11.0011   -4.1542 H   0  0  0  0  0  0  0  0  0  0  0  0
    3.8160   13.0615   -5.1279 H   0  0  0  0  0  0  0  0  0  0  0  0
    2.0086   13.0630   -5.1173 H   0  0  0  0  0  0  0  0  0  0  0  0
    2.7849   15.2347   -4.4551 H   0  0  0  0  0  0  0  0  0  0  0  0
    4.6120   13.6910   -3.0780 H   0  0  0  0  0  0  0  0  0  0  0  0
   -0.4250   14.8122   -2.7787 H   0  0  0  0  0  0  0  0  0  0  0  0
    0.4595   15.6064   -4.1254 H   0  0  0  0  0  0  0  0  0  0  0  0
    0.2357   13.8241   -4.1254 H   0  0  0  0  0  0  0  0  0  0  0  0
    1.8960   15.6207   -0.8295 H   0  0  0  0  0  0  0  0  0  0  0  0
    2.9044   16.2941   -2.1547 H   0  0  0  0  0  0  0  0  0  0  0  0
    1.1278   16.5590   -2.1547 H   0  0  0  0  0  0  0  0  0  0  0  0
    3.0806   10.2357   -0.0863 H   0  0  0  0  0  0  0  0  0  0  0  0
    3.3184    9.2426   -1.5641 H   0  0  0  0  0  0  0  0  0  0  0  0
    3.7817   10.9781   -1.5641 H   0  0  0  0  0  0  0  0  0  0  0  0
    1.4878    9.5537   -3.5626 H   0  0  0  0  0  0  0  0  0  0  0  0
    1.4908    8.5148   -2.0277 H   0  0  0  0  0  0  0  0  0  0  0  0
   -0.8449   10.0194   -3.2371 H   0  0  0  0  0  0  0  0  0  0  0  0
   -0.6141    8.2340   -3.0755 H   0  0  0  0  0  0  0  0  0  0  0  0
   -0.5691    8.2571    0.6665 H   0  0  0  0  0  0  0  0  0  0  0  0
   -1.0250    7.1333   -0.6586 H   0  0  0  0  0  0  0  0  0  0  0  0
    0.5935    7.9123   -0.6586 H   0  0  0  0  0  0  0  0  0  0  0  0
  1  2  1  0
  2  3  1  0
  3  4  1  0
  4  5  1  0
  5  6  1  0
  6  7  1  0
  7  8  1  0
  7  9  1  0
  2 10  1  0
 10 11  1  0
 11 12  1  0
 12 13  1  0
 13 14  1  6
 13 15  1  0
 15 16  1  0
 16 17  1  0
 17 18  2  0
 18 19  1  0
 19 20  1  0
 20 21  1  0
 21 22  1  0
 22 23  1  0
 22 24  1  0
 24 25  1  0
 24 26  1  0
 19 27  1  0
 27 28  1  1
 27 29  1  0
 29 30  1  0
 30 31  1  0
 31 32  1  1
  7  5  1  0
 31 10  1  0
 31 13  1  0
 27 15  1  0
 24 18  1  0
  1 33  1  0
  1 34  1  0
  1 35  1  0
  2 36  1  1
  3 37  1  0
  3 38  1  0
  4 39  1  0
  4 40  1  0
  5 41  1  1
  8 42  1  0
  8 43  1  0
  8 44  1  0
  9 45  1  0
  9 46  1  0
  9 47  1  0
 10 48  1  6
 11 49  1  0
 11 50  1  0
 12 51  1  0
 12 52  1  0
 14 53  1  0
 14 54  1  0
 14 55  1  0
 15 56  1  1
 16 57  1  0
 16 58  1  0
 17 59  1  0
 19 60  1  6
 20 61  1  0
 20 62  1  0
 21 63  1  0
 21 64  1  0
 22 65  1  6
 23 66  1  0
 25 67  1  0
 25 68  1  0
 25 69  1  0
 26 70  1  0
 26 71  1  0
 26 72  1  0
 28 73  1  0
 28 74  1  0
 28 75  1  0
 29 76  1  0
 29 77  1  0
 30 78  1  0
 30 79  1  0
 32 80  1  0
 32 81  1  0
 32 82  1  0
M  END
>  <meeko>  (8) 
{"is_sidechain": [false], "intermolecular_energy": 2.731, "internal_energy": -0.839}

$$$$
EPH_relaxed_0001_pdb2pqr_Repair_307_r2_0001_out
     RDKit          3D

 82 86  0  0  0  0  0  0  0  0999 V2000
   -0.9440    9.3500   -2.8560 C   0  0  0  0  0  0  0  0  0  0  0  0
    0.1650    9.0250   -1.8520 C   0  0  2  0  0  0  0  0  0  0  0  0
   -0.3890    8.7680   -0.4360 C   0  0  0  0  0  0  0  0  0  0  0  0
   -0.8450   10.0390    0.2860 C   0  0  0  0  0  0  0  0  0  0  0  0
    0.2000   10.5420    1.2350 C   0  0  2  0  0  0  0  0  0  0  0  0
   -0.3020   11.3650    2.2970 O   0  0  0  0  0  0  0  0  0  0  0  0
    0.5800   12.0060    1.3610 C   0  0  0  0  0  0  0  0  0  0  0  0
   -0.0800   13.0580    0.5260 C   0  0  0  0  0  0  0  0  0  0  0  0
    1.9190   12.3510    1.9340 C   0  0  0  0  0  0  0  0  0  0  0  0
    1.1810   10.1610   -1.8150 C   0  0  1  0  0  0  0  0  0  0  0  0
    2.6260    9.6810   -2.1150 C   0  0  0  0  0  0  0  0  0  0  0  0
    3.3240   10.8240   -2.8970 C   0  0  0  0  0  0  0  0  0  0  0  0
    2.3820   12.0400   -2.7320 C   0  0  1  0  0  0  0  0  0  0  0  0
    2.7230   12.6240   -1.3250 C   0  0  0  0  0  0  0  0  0  0  0  0
    2.4650   13.1340   -3.8470 C   0  0  2  0  0  0  0  0  0  0  0  0
    3.8280   13.8380   -3.9690 C   0  0  0  0  0  0  0  0  0  0  0  0
    3.9850   15.0700   -3.1410 C   0  0  0  0  0  0  0  0  0  0  0  0
    2.9840   15.7500   -2.5520 C   0  0  0  0  0  0  0  0  0  0  0  0
    1.5210   15.3470   -2.7740 C   0  0  1  0  0  0  0  0  0  0  0  0
    0.6760   16.6110   -3.0850 C   0  0  0  0  0  0  0  0  0  0  0  0
    0.8280   17.6920   -2.0190 C   0  0  0  0  0  0  0  0  0  0  0  0
    2.2890   18.1080   -1.8690 C   0  0  2  0  0  0  0  0  0  0  0  0
    2.7090   18.7610   -3.0710 O   0  0  0  0  0  0  0  0  0  0  0  0
    3.2380   16.9150   -1.5640 C   0  0  0  0  0  0  0  0  0  0  0  0
    2.9780   16.3990   -0.1270 C   0  0  0  0  0  0  0  0  0  0  0  0
    4.6950   17.4490   -1.5760 C   0  0  0  0  0  0  0  0  0  0  0  0
    1.2750   14.1770   -3.8210 C   0  0  1  0  0  0  0  0  0  0  0  0
    1.1680   14.7650   -5.2610 C   0  0  0  0  0  0  0  0  0  0  0  0
   -0.1110   13.4950   -3.5160 C   0  0  0  0  0  0  0  0  0  0  0  0
   -0.1080   12.3420   -2.4940 C   0  0  0  0  0  0  0  0  0  0  0  0
    0.9870   11.3220   -2.8230 C   0  0  2  0  0  0  0  0  0  0  0  0
    0.6580   10.7010   -4.2230 C   0  0  0  0  0  0  0  0  0  0  0  0
   -1.8623    9.6191   -2.3136 H   0  0  0  0  0  0  0  0  0  0  0  0
   -0.6307   10.1941   -3.4879 H   0  0  0  0  0  0  0  0  0  0  0  0
   -1.1359    8.4703   -3.4879 H   0  0  0  0  0  0  0  0  0  0  0  0
    0.6538    8.0986   -2.1878 H   0  0  0  0  0  0  0  0  0  0  0  0
   -1.2492    8.0873   -0.5178 H   0  0  0  0  0  0  0  0  0  0  0  0
    0.4314    8.3378    0.1572 H   0  0  0  0  0  0  0  0  0  0  0  0
   -1.0527   10.8187   -0.4616 H   0  0  0  0  0  0  0  0  0  0  0  0
   -1.7482    9.7988    0.8661 H   0  0  0  0  0  0  0  0  0  0  0  0
    0.8024    9.6329    1.0913 H   0  0  0  0  0  0  0  0  0  0  0  0
   -0.5492   13.8059    1.1821 H   0  0  0  0  0  0  0  0  0  0  0  0
    0.6729   13.5480   -0.1089 H   0  0  0  0  0  0  0  0  0  0  0  0
   -0.8488   12.5934   -0.1089 H   0  0  0  0  0  0  0  0  0  0  0  0
    1.8625   12.3365    3.0325 H   0  0  0  0  0  0  0  0  0  0  0  0
    2.6634   11.6153    1.5953 H   0  0  0  0  0  0  0  0  0  0  0  0
    2.2152   13.3548    1.5953 H   0  0  0  0  0  0  0  0  0  0  0  0
    1.0161   10.5218   -0.7890 H   0  0  0  0  0  0  0  0  0  0  0  0
    3.1621    9.4827   -1.1751 H   0  0  0  0  0  0  0  0  0  0  0  0
    2.6192    8.7493   -2.6997 H   0  0  0  0  0  0  0  0  0  0  0  0
    4.3144   11.0389   -2.4694 H   0  0  0  0  0  0  0  0  0  0  0  0
    3.4916   10.5658   -3.9531 H   0  0  0  0  0  0  0  0  0  0  0  0
    2.3318   11.9540   -0.5453 H   0  0  0  0  0  0  0  0  0  0  0  0
    3.8144   12.7119   -1.2192 H   0  0  0  0  0  0  0  0  0  0  0  0
    2.2632   13.6176   -1.2192 H   0  0  0  0  0  0  0  0  0  0  0  0
    2.3507   12.5431   -4.7677 H   0  0  0  0  0  0  0  0  0  0  0  0
    4.6079   13.1236   -3.6668 H   0  0  0  0  0  0  0  0  0  0  0  0
    3.9104   14.1627   -5.0168 H   0  0  0  0  0  0  0  0  0  0  0  0
    5.0058   15.4549   -3.0002 H   0  0  0  0  0  0  0  0  0  0  0  0
    1.1842   14.8959   -1.8290 H   0  0  0  0  0  0  0  0  0  0  0  0
    0.9991   17.0220   -4.0528 H   0  0  0  0  0  0  0  0  0  0  0  0
   -0.3816   16.3092   -3.1067 H   0  0  0  0  0  0  0  0  0  0  0  0
    0.2316   18.5697   -2.3087 H   0  0  0  0  0  0  0  0  0  0  0  0
    0.4770   17.2891   -1.0575 H   0  0  0  0  0  0  0  0  0  0  0  0
    2.3509   18.7869   -1.0057 H   0  0  0  0  0  0  0  0  0  0  0  0
    2.7100   19.7180   -2.9010 H   0  0  0  0  0  0  0  0  0  0  0  0
    3.3494   17.1361    0.6001 H   0  0  0  0  0  0  0  0  0  0  0  0
    1.8979   16.2513    0.0197 H   0  0  0  0  0  0  0  0  0  0  0  0
    3.5020   15.4430    0.0197 H   0  0  0  0  0  0  0  0  0  0  0  0
    5.0468   17.5779   -0.5418 H   0  0  0  0  0  0  0  0  0  0  0  0
    5.3446   16.7305   -2.0974 H   0  0  0  0  0  0  0  0  0  0  0  0
    4.7264   18.4171   -2.0974 H   0  0  0  0  0  0  0  0  0  0  0  0
    0.9713   15.8457   -5.2021 H   0  0  0  0  0  0  0  0  0  0  0  0
    2.1122   14.5929   -5.7984 H   0  0  0  0  0  0  0  0  0  0  0  0
    0.3449   14.2713   -5.7984 H   0  0  0  0  0  0  0  0  0  0  0  0
   -0.7889   14.2739   -3.1369 H   0  0  0  0  0  0  0  0  0  0  0  0
   -0.4214   13.0364   -4.4664 H   0  0  0  0  0  0  0  0  0  0  0  0
    0.0719   12.7519   -1.4892 H   0  0  0  0  0  0  0  0  0  0  0  0
   -1.0835   11.8352   -2.5334 H   0  0  0  0  0  0  0  0  0  0  0  0
    0.1471    9.7366   -4.0854 H   0  0  0  0  0  0  0  0  0  0  0  0
    0.0043   11.3856   -4.7833 H   0  0  0  0  0  0  0  0  0  0  0  0
    1.5916   10.5447   -4.7833 H   0  0  0  0  0  0  0  0  0  0  0  0
  1  2  1  0
  2  3  1  0
  3  4  1  0
  4  5  1  0
  5  6  1  0
  6  7  1  0
  7  8  1  0
  7  9  1  0
  2 10  1  0
 10 11  1  0
 11 12  1  0
 12 13  1  0
 13 14  1  1
 13 15  1  0
 15 16  1  0
 16 17  1  0
 17 18  2  0
 18 19  1  0
 19 20  1  0
 20 21  1  0
 21 22  1  0
 22 23  1  0
 22 24  1  0
 24 25  1  0
 24 26  1  0
 19 27  1  0
 27 28  1  6
 27 29  1  0
 29 30  1  0
 30 31  1  0
 31 32  1  6
  7  5  1  0
 31 10  1  0
 31 13  1  0
 27 15  1  0
 24 18  1  0
  1 33  1  0
  1 34  1  0
  1 35  1  0
  2 36  1  6
  3 37  1  0
  3 38  1  0
  4 39  1  0
  4 40  1  0
  5 41  1  1
  8 42  1  0
  8 43  1  0
  8 44  1  0
  9 45  1  0
  9 46  1  0
  9 47  1  0
 10 48  1  1
 11 49  1  0
 11 50  1  0
 12 51  1  0
 12 52  1  0
 14 53  1  0
 14 54  1  0
 14 55  1  0
 15 56  1  6
 16 57  1  0
 16 58  1  0
 17 59  1  0
 19 60  1  1
 20 61  1  0
 20 62  1  0
 21 63  1  0
 21 64  1  0
 22 65  1  1
 23 66  1  0
 25 67  1  0
 25 68  1  0
 25 69  1  0
 26 70  1  0
 26 71  1  0
 26 72  1  0
 28 73  1  0
 28 74  1  0
 28 75  1  0
 29 76  1  0
 29 77  1  0
 30 78  1  0
 30 79  1  0
 32 80  1  0
 32 81  1  0
 32 82  1  0
M  END
>  <meeko>  (9) 
{"is_sidechain": [false], "intermolecular_energy": 2.731, "internal_energy": -0.839}

$$$$
EPH_relaxed_0001_pdb2pqr_Repair_307_r2_0001_out
     RDKit          3D

 82 86  0  0  0  0  0  0  0  0999 V2000
    0.0940   10.3430   -3.8080 C   0  0  0  0  0  0  0  0  0  0  0  0
    1.1430   10.1480   -2.7100 C   0  0  2  0  0  0  0  0  0  0  0  0
    0.8610    8.8980   -1.8520 C   0  0  0  0  0  0  0  0  0  0  0  0
    0.2160    9.2140   -0.4990 C   0  0  0  0  0  0  0  0  0  0  0  0
   -1.2110    8.7580   -0.4460 C   0  0  2  0  0  0  0  0  0  0  0  0
   -1.9080    8.8260   -1.6970 O   0  0  0  0  0  0  0  0  0  0  0  0
   -2.3940    9.6860   -0.6530 C   0  0  0  0  0  0  0  0  0  0  0  0
   -2.2020   11.1440   -0.9290 C   0  0  0  0  0  0  0  0  0  0  0  0
   -3.7270    9.2790   -0.1080 C   0  0  0  0  0  0  0  0  0  0  0  0
    1.2040   11.3860   -1.8230 C   0  0  1  0  0  0  0  0  0  0  0  0
    2.0930   11.1790   -0.5680 C   0  0  0  0  0  0  0  0  0  0  0  0
    2.7840   12.5370   -0.2810 C   0  0  0  0  0  0  0  0  0  0  0  0
    2.0250   13.5550   -1.1640 C   0  0  1  0  0  0  0  0  0  0  0  0
    0.7330   13.8990   -0.3590 C   0  0  0  0  0  0  0  0  0  0  0  0
    2.8140   14.8430   -1.5670 C   0  0  2  0  0  0  0  0  0  0  0  0
    3.2400   15.7420   -0.3930 C   0  0  0  0  0  0  0  0  0  0  0  0
    2.2600   16.8010   -0.0120 C   0  0  0  0  0  0  0  0  0  0  0  0
    1.2180   17.2090   -0.7610 C   0  0  0  0  0  0  0  0  0  0  0  0
    1.0010   16.6550   -2.1750 C   0  0  1  0  0  0  0  0  0  0  0  0
    0.6960   17.8240   -3.1480 C   0  0  0  0  0  0  0  0  0  0  0  0
   -0.4670   18.6910   -2.6750 C   0  0  0  0  0  0  0  0  0  0  0  0
   -0.1880   19.2700   -1.2900 C   0  0  2  0  0  0  0  0  0  0  0  0
    0.9000   20.1940   -1.3880 O   0  0  0  0  0  0  0  0  0  0  0  0
    0.1410   18.1850   -0.2270 C   0  0  0  0  0  0  0  0  0  0  0  0
   -1.1350   17.3710    0.0980 C   0  0  0  0  0  0  0  0  0  0  0  0
    0.5410   18.9100    1.0870 C   0  0  0  0  0  0  0  0  0  0  0  0
    2.1350   15.6850   -2.7220 C   0  0  1  0  0  0  0  0  0  0  0  0
    3.2690   16.5190   -3.3920 C   0  0  0  0  0  0  0  0  0  0  0  0
    1.5290   14.7710   -3.8510 C   0  0  0  0  0  0  0  0  0  0  0  0
    0.8680   13.4540   -3.4000 C   0  0  0  0  0  0  0  0  0  0  0  0
    1.7840   12.6800   -2.4470 C   0  0  2  0  0  0  0  0  0  0  0  0
    3.0840   12.3010   -3.2360 C   0  0  0  0  0  0  0  0  0  0  0  0
   -0.8885   10.5256   -3.3482 H   0  0  0  0  0  0  0  0  0  0  0  0
    0.3725   11.2048   -4.4323 H   0  0  0  0  0  0  0  0  0  0  0  0
    0.0442    9.4387   -4.4323 H   0  0  0  0  0  0  0  0  0  0  0  0
    2.1141    9.9967   -3.2040 H   0  0  0  0  0  0  0  0  0  0  0  0
    0.1847    8.2365   -2.4133 H   0  0  0  0  0  0  0  0  0  0  0  0
    1.8319    8.4250   -1.6432 H   0  0  0  0  0  0  0  0  0  0  0  0
    0.7829    8.7044    0.2941 H   0  0  0  0  0  0  0  0  0  0  0  0
    0.2334   10.3046   -0.3568 H   0  0  0  0  0  0  0  0  0  0  0  0
   -0.9738    8.0298    0.3436 H   0  0  0  0  0  0  0  0  0  0  0  0
   -2.1300   11.6910    0.0227 H   0  0  0  0  0  0  0  0  0  0  0  0
   -1.2770   11.2892   -1.5063 H   0  0  0  0  0  0  0  0  0  0  0  0
   -3.0579   11.5237   -1.5063 H   0  0  0  0  0  0  0  0  0  0  0  0
   -3.6924    9.2896    0.9914 H   0  0  0  0  0  0  0  0  0  0  0  0
   -4.4965    9.9831   -0.4574 H   0  0  0  0  0  0  0  0  0  0  0  0
   -3.9719    8.2651   -0.4574 H   0  0  0  0  0  0  0  0  0  0  0  0
    0.1318   11.5165   -1.6150 H   0  0  0  0  0  0  0  0  0  0  0  0
    1.4732   10.8804    0.2903 H   0  0  0  0  0  0  0  0  0  0  0  0
    2.8359   10.3854   -0.7365 H   0  0  0  0  0  0  0  0  0  0  0  0
    2.6931   12.8019    0.7828 H   0  0  0  0  0  0  0  0  0  0  0  0
    3.8609   12.5126   -0.5040 H   0  0  0  0  0  0  0  0  0  0  0  0
    0.9464   13.8422    0.7186 H   0  0  0  0  0  0  0  0  0  0  0  0
    0.4021   14.9165   -0.6141 H   0  0  0  0  0  0  0  0  0  0  0  0
   -0.0601   13.1807   -0.6141 H   0  0  0  0  0  0  0  0  0  0  0  0
    3.7456   14.4283   -1.9794 H   0  0  0  0  0  0  0  0  0  0  0  0
    3.4044   15.0996    0.4846 H   0  0  0  0  0  0  0  0  0  0  0  0
    4.1445   16.2710   -0.7278 H   0  0  0  0  0  0  0  0  0  0  0  0
    2.4008   17.2897    0.9634 H   0  0  0  0  0  0  0  0  0  0  0  0
    0.1294   15.9872   -2.1092 H   0  0  0  0  0  0  0  0  0  0  0  0
    1.5934   18.4543   -3.2341 H   0  0  0  0  0  0  0  0  0  0  0  0
    0.4137   17.3867   -4.1171 H   0  0  0  0  0  0  0  0  0  0  0  0
   -0.6137   19.5163   -3.3873 H   0  0  0  0  0  0  0  0  0  0  0  0
   -1.3706   18.0662   -2.6188 H   0  0  0  0  0  0  0  0  0  0  0  0
   -1.1062   19.7719   -0.9508 H   0  0  0  0  0  0  0  0  0  0  0  0
    1.6790   19.7760   -0.9820 H   0  0  0  0  0  0  0  0  0  0  0  0
   -1.2537   17.2953    1.1890 H   0  0  0  0  0  0  0  0  0  0  0  0
   -2.0121   17.8768   -0.3320 H   0  0  0  0  0  0  0  0  0  0  0  0
   -1.0460   16.3625   -0.3320 H   0  0  0  0  0  0  0  0  0  0  0  0
    0.2116   18.3129    1.9501 H   0  0  0  0  0  0  0  0  0  0  0  0
    1.6338   19.0314    1.1208 H   0  0  0  0  0  0  0  0  0  0  0  0
    0.0610   19.8992    1.1208 H   0  0  0  0  0  0  0  0  0  0  0  0
    3.8948   16.9792   -2.6132 H   0  0  0  0  0  0  0  0  0  0  0  0
    3.8883   15.8596   -4.0178 H   0  0  0  0  0  0  0  0  0  0  0  0
    2.8241   17.3067   -4.0178 H   0  0  0  0  0  0  0  0  0  0  0  0
    0.7675   15.3602   -4.3829 H   0  0  0  0  0  0  0  0  0  0  0  0
    2.3886   14.4654   -4.4656 H   0  0  0  0  0  0  0  0  0  0  0  0
   -0.0764   13.6832   -2.8847 H   0  0  0  0  0  0  0  0  0  0  0  0
    0.6805   12.8331   -4.2884 H   0  0  0  0  0  0  0  0  0  0  0  0
    3.8894   12.0662   -2.5245 H   0  0  0  0  0  0  0  0  0  0  0  0
    2.8861   11.4231   -3.8686 H   0  0  0  0  0  0  0  0  0  0  0  0
    3.3889   13.1476   -3.8686 H   0  0  0  0  0  0  0  0  0  0  0  0
  1  2  1  0
  2  3  1  0
  3  4  1  0
  4  5  1  0
  5  6  1  0
  6  7  1  0
  7  8  1  0
  7  9  1  0
  2 10  1  0
 10 11  1  0
 11 12  1  0
 12 13  1  0
 13 14  1  1
 13 15  1  0
 15 16  1  0
 16 17  1  0
 17 18  2  0
 18 19  1  0
 19 20  1  0
 20 21  1  0
 21 22  1  0
 22 23  1  0
 22 24  1  0
 24 25  1  0
 24 26  1  0
 19 27  1  0
 27 28  1  6
 27 29  1  0
 29 30  1  0
 30 31  1  0
 31 32  1  6
  7  5  1  0
 31 10  1  0
 31 13  1  0
 27 15  1  0
 24 18  1  0
  1 33  1  0
  1 34  1  0
  1 35  1  0
  2 36  1  6
  3 37  1  0
  3 38  1  0
  4 39  1  0
  4 40  1  0
  5 41  1  1
  8 42  1  0
  8 43  1  0
  8 44  1  0
  9 45  1  0
  9 46  1  0
  9 47  1  0
 10 48  1  1
 11 49  1  0
 11 50  1  0
 12 51  1  0
 12 52  1  0
 14 53  1  0
 14 54  1  0
 14 55  1  0
 15 56  1  6
 16 57  1  0
 16 58  1  0
 17 59  1  0
 19 60  1  1
 20 61  1  0
 20 62  1  0
 21 63  1  0
 21 64  1  0
 22 65  1  1
 23 66  1  0
 25 67  1  0
 25 68  1  0
 25 69  1  0
 26 70  1  0
 26 71  1  0
 26 72  1  0
 28 73  1  0
 28 74  1  0
 28 75  1  0
 29 76  1  0
 29 77  1  0
 30 78  1  0
 30 79  1  0
 32 80  1  0
 32 81  1  0
 32 82  1  0
M  END
>  <meeko>  (10) 
{"is_sidechain": [false], "intermolecular_energy": 2.731, "internal_energy": -0.839}

$$$$
EPH_relaxed_0001_pdb2pqr_Repair_307_r2_0001_out
     RDKit          3D

 82 86  0  0  0  0  0  0  0  0999 V2000
    3.5540   17.8480   -1.7840 C   0  0  0  0  0  0  0  0  0  0  0  0
    2.4480   17.3680   -2.7280 C   0  0  2  0  0  0  0  0  0  0  0  0
    1.0550   17.8630   -2.2900 C   0  0  0  0  0  0  0  0  0  0  0  0
    1.0790   18.7340   -1.0310 C   0  0  0  0  0  0  0  0  0  0  0  0
   -0.1400   19.6000   -0.9330 C   0  0  2  0  0  0  0  0  0  0  0  0
   -0.3630   20.1740    0.3620 O   0  0  0  0  0  0  0  0  0  0  0  0
   -1.3550   19.2420   -0.0980 C   0  0  0  0  0  0  0  0  0  0  0  0
   -1.4120   17.9740    0.6940 C   0  0  0  0  0  0  0  0  0  0  0  0
   -2.6680   19.8770   -0.4370 C   0  0  0  0  0  0  0  0  0  0  0  0
    2.4580   15.8460   -2.8080 C   0  0  1  0  0  0  0  0  0  0  0  0
    3.8710   15.2720   -3.0950 C   0  0  0  0  0  0  0  0  0  0  0  0
    3.9760   13.9320   -2.3220 C   0  0  0  0  0  0  0  0  0  0  0  0
    2.5240   13.6160   -1.8910 C   0  0  1  0  0  0  0  0  0  0  0  0
    1.8610   12.9810   -3.1530 C   0  0  0  0  0  0  0  0  0  0  0  0
    2.3600   12.7040   -0.6320 C   0  0  2  0  0  0  0  0  0  0  0  0
    2.9340   11.2840   -0.7760 C   0  0  0  0  0  0  0  0  0  0  0  0
    1.9790   10.2600   -1.2950 C   0  0  0  0  0  0  0  0  0  0  0  0
    0.6420   10.4010   -1.3630 C   0  0  0  0  0  0  0  0  0  0  0  0
   -0.0480   11.6500   -0.7990 C   0  0  1  0  0  0  0  0  0  0  0  0
   -1.2750   11.2240    0.0500 C   0  0  0  0  0  0  0  0  0  0  0  0
   -2.2360   10.3240   -0.7210 C   0  0  0  0  0  0  0  0  0  0  0  0
   -1.5270    9.0660   -1.2150 C   0  0  2  0  0  0  0  0  0  0  0  0
   -1.1570    8.2710   -0.0840 O   0  0  0  0  0  0  0  0  0  0  0  0
   -0.2680    9.3700   -2.0750 C   0  0  0  0  0  0  0  0  0  0  0  0
   -0.7000    9.9630   -3.4390 C   0  0  0  0  0  0  0  0  0  0  0  0
    0.4320    8.0200   -2.3900 C   0  0  0  0  0  0  0  0  0  0  0  0
    0.8940   12.6780   -0.0370 C   0  0  1  0  0  0  0  0  0  0  0  0
    1.0290   12.2680    1.4610 C   0  0  0  0  0  0  0  0  0  0  0  0
    0.2180   14.1000   -0.0490 C   0  0  0  0  0  0  0  0  0  0  0  0
    0.5150   15.0000   -1.2640 C   0  0  0  0  0  0  0  0  0  0  0  0
    2.0190   15.0640   -1.5450 C   0  0  2  0  0  0  0  0  0  0  0  0
    2.7110   15.7190   -0.3010 C   0  0  0  0  0  0  0  0  0  0  0  0
    3.2323   17.7084   -0.7414 H   0  0  0  0  0  0  0  0  0  0  0  0
    4.4697   17.2663   -1.9662 H   0  0  0  0  0  0  0  0  0  0  0  0
    3.7545   18.9141   -1.9662 H   0  0  0  0  0  0  0  0  0  0  0  0
    2.6525   17.7944   -3.7212 H   0  0  0  0  0  0  0  0  0  0  0  0
    0.6216   18.4522   -3.1116 H   0  0  0  0  0  0  0  0  0  0  0  0
    0.4570   16.9709   -2.0523 H   0  0  0  0  0  0  0  0  0  0  0  0
    1.1246   18.0813   -0.1468 H   0  0  0  0  0  0  0  0  0  0  0  0
    1.9614   19.3886   -1.0836 H   0  0  0  0  0  0  0  0  0  0  0  0
   -0.0320   19.9126   -1.9821 H   0  0  0  0  0  0  0  0  0  0  0  0
   -1.4013   18.2117    1.7680 H   0  0  0  0  0  0  0  0  0  0  0  0
   -2.3355   17.4293    0.4482 H   0  0  0  0  0  0  0  0  0  0  0  0
   -0.5411   17.3487    0.4482 H   0  0  0  0  0  0  0  0  0  0  0  0
   -3.2009   20.1347    0.4902 H   0  0  0  0  0  0  0  0  0  0  0  0
   -2.4928   20.7899   -1.0251 H   0  0  0  0  0  0  0  0  0  0  0  0
   -3.2749   19.1728   -1.0251 H   0  0  0  0  0  0  0  0  0  0  0  0
    1.7248   15.6996   -3.6149 H   0  0  0  0  0  0  0  0  0  0  0  0
    3.9969   15.0977   -4.1738 H   0  0  0  0  0  0  0  0  0  0  0  0
    4.6547   15.9745   -2.7752 H   0  0  0  0  0  0  0  0  0  0  0  0
    4.3695   13.1377   -2.9733 H   0  0  0  0  0  0  0  0  0  0  0  0
    4.6612   13.9977   -1.4640 H   0  0  0  0  0  0  0  0  0  0  0  0
    1.0996   12.2517   -2.8394 H   0  0  0  0  0  0  0  0  0  0  0  0
    1.3868   13.7705   -3.7546 H   0  0  0  0  0  0  0  0  0  0  0  0
    2.6293   12.4732   -3.7546 H   0  0  0  0  0  0  0  0  0  0  0  0
    2.9961   13.2091    0.1098 H   0  0  0  0  0  0  0  0  0  0  0  0
    3.7896   11.3315   -1.4658 H   0  0  0  0  0  0  0  0  0  0  0  0
    3.2048   10.9606    0.2399 H   0  0  0  0  0  0  0  0  0  0  0  0
    2.4040    9.3102   -1.6519 H   0  0  0  0  0  0  0  0  0  0  0  0
   -0.3808   12.2336   -1.6700 H   0  0  0  0  0  0  0  0  0  0  0  0
   -0.9182   10.6806    0.9374 H   0  0  0  0  0  0  0  0  0  0  0  0
   -1.8224   12.1370    0.3272 H   0  0  0  0  0  0  0  0  0  0  0  0
   -3.0659   10.0335   -0.0600 H   0  0  0  0  0  0  0  0  0  0  0  0
   -2.6144   10.8789   -1.5921 H   0  0  0  0  0  0  0  0  0  0  0  0
   -2.2292    8.5260   -1.8672 H   0  0  0  0  0  0  0  0  0  0  0  0
   -1.5380    7.3850   -0.2100 H   0  0  0  0  0  0  0  0  0  0  0  0
   -1.3401   10.8416   -3.2706 H   0  0  0  0  0  0  0  0  0  0  0  0
    0.1926   10.2631   -4.0076 H   0  0  0  0  0  0  0  0  0  0  0  0
   -1.2593    9.2054   -4.0076 H   0  0  0  0  0  0  0  0  0  0  0  0
    0.6941    7.5145   -1.4488 H   0  0  0  0  0  0  0  0  0  0  0  0
   -0.2485    7.3812   -2.9721 H   0  0  0  0  0  0  0  0  0  0  0  0
    1.3462    8.2081   -2.9721 H   0  0  0  0  0  0  0  0  0  0  0  0
    0.7491   13.1181    2.1005 H   0  0  0  0  0  0  0  0  0  0  0  0
    0.3635   11.4174    1.6698 H   0  0  0  0  0  0  0  0  0  0  0  0
    2.0697   11.9792    1.6698 H   0  0  0  0  0  0  0  0  0  0  0  0
   -0.8709   13.9512   -0.0033 H   0  0  0  0  0  0  0  0  0  0  0  0
    0.6474   14.6302    0.8139 H   0  0  0  0  0  0  0  0  0  0  0  0
    0.0010   14.5930   -2.1473 H   0  0  0  0  0  0  0  0  0  0  0  0
    0.1562   16.0162   -1.0434 H   0  0  0  0  0  0  0  0  0  0  0  0
    2.2750   15.3063    0.6207 H   0  0  0  0  0  0  0  0  0  0  0  0
    3.7893   15.5030   -0.3252 H   0  0  0  0  0  0  0  0  0  0  0  0
    2.5545   16.8075   -0.3252 H   0  0  0  0  0  0  0  0  0  0  0  0
  1  2  1  0
  2  3  1  0
  3  4  1  0
  4  5  1  0
  5  6  1  0
  6  7  1  0
  7  8  1  0
  7  9  1  0
  2 10  1  0
 10 11  1  0
 11 12  1  0
 12 13  1  0
 13 14  1  6
 13 15  1  0
 15 16  1  0
 16 17  1  0
 17 18  2  0
 18 19  1  0
 19 20  1  0
 20 21  1  0
 21 22  1  0
 22 23  1  0
 22 24  1  0
 24 25  1  0
 24 26  1  0
 19 27  1  0
 27 28  1  1
 27 29  1  0
 29 30  1  0
 30 31  1  0
 31 32  1  1
  7  5  1  0
 31 10  1  0
 31 13  1  0
 27 15  1  0
 24 18  1  0
  1 33  1  0
  1 34  1  0
  1 35  1  0
  2 36  1  6
  3 37  1  0
  3 38  1  0
  4 39  1  0
  4 40  1  0
  5 41  1  6
  8 42  1  0
  8 43  1  0
  8 44  1  0
  9 45  1  0
  9 46  1  0
  9 47  1  0
 10 48  1  6
 11 49  1  0
 11 50  1  0
 12 51  1  0
 12 52  1  0
 14 53  1  0
 14 54  1  0
 14 55  1  0
 15 56  1  1
 16 57  1  0
 16 58  1  0
 17 59  1  0
 19 60  1  6
 20 61  1  0
 20 62  1  0
 21 63  1  0
 21 64  1  0
 22 65  1  6
 23 66  1  0
 25 67  1  0
 25 68  1  0
 25 69  1  0
 26 70  1  0
 26 71  1  0
 26 72  1  0
 28 73  1  0
 28 74  1  0
 28 75  1  0
 29 76  1  0
 29 77  1  0
 30 78  1  0
 30 79  1  0
 32 80  1  0
 32 81  1  0
 32 82  1  0
M  END
>  <meeko>  (11) 
{"is_sidechain": [false], "intermolecular_energy": 2.731, "internal_energy": -0.839}

$$$$
EPH_relaxed_0001_pdb2pqr_Repair_307_r2_0001_out
     RDKit          3D

 82 86  0  0  0  0  0  0  0  0999 V2000
    4.5900   17.7640   -0.7830 C   0  0  0  0  0  0  0  0  0  0  0  0
    3.2100   18.3240   -0.4290 C   0  0  2  0  0  0  0  0  0  0  0  0
    3.1760   18.9330    0.9870 C   0  0  0  0  0  0  0  0  0  0  0  0
    4.4740   18.7310    1.7750 C   0  0  0  0  0  0  0  0  0  0  0  0
    4.3730   19.2910    3.1620 C   0  0  2  0  0  0  0  0  0  0  0  0
    5.4270   20.1950    3.5200 O   0  0  0  0  0  0  0  0  0  0  0  0
    5.3610   18.9690    4.2670 C   0  0  0  0  0  0  0  0  0  0  0  0
    6.5210   18.0520    4.0350 C   0  0  0  0  0  0  0  0  0  0  0  0
    4.9290   19.1530    5.6890 C   0  0  0  0  0  0  0  0  0  0  0  0
    2.1580   17.2270   -0.5490 C   0  0  1  0  0  0  0  0  0  0  0  0
    0.7690   17.7750   -0.9710 C   0  0  0  0  0  0  0  0  0  0  0  0
    0.1170   16.6950   -1.8720 C   0  0  0  0  0  0  0  0  0  0  0  0
    0.9950   15.4380   -1.6710 C   0  0  1  0  0  0  0  0  0  0  0  0
    0.4910   14.8060   -0.3360 C   0  0  0  0  0  0  0  0  0  0  0  0
    0.9900   14.3980   -2.8390 C   0  0  2  0  0  0  0  0  0  0  0  0
   -0.3760   13.7520   -3.1320 C   0  0  0  0  0  0  0  0  0  0  0  0
   -0.6590   12.4920   -2.3840 C   0  0  0  0  0  0  0  0  0  0  0  0
    0.2530   11.7490   -1.7300 C   0  0  0  0  0  0  0  0  0  0  0  0
    1.7440   12.1050   -1.7830 C   0  0  1  0  0  0  0  0  0  0  0  0
    2.5730   10.8250   -2.0660 C   0  0  0  0  0  0  0  0  0  0  0  0
    2.2750    9.7040   -1.0740 C   0  0  0  0  0  0  0  0  0  0  0  0
    0.7940    9.3390   -1.0920 C   0  0  2  0  0  0  0  0  0  0  0  0
    0.4780    8.7560   -2.3600 O   0  0  0  0  0  0  0  0  0  0  0  0
   -0.1400   10.5530   -0.8280 C   0  0  0  0  0  0  0  0  0  0  0  0
   -0.0130   10.9950    0.6500 C   0  0  0  0  0  0  0  0  0  0  0  0
   -1.6060   10.0760   -1.0140 C   0  0  0  0  0  0  0  0  0  0  0  0
    2.1350   13.3100   -2.7430 C   0  0  1  0  0  0  0  0  0  0  0  0
    2.3700   12.7820   -4.1910 C   0  0  0  0  0  0  0  0  0  0  0  0
    3.5040   13.9230   -2.2660 C   0  0  0  0  0  0  0  0  0  0  0  0
    3.4350   15.0310   -1.1970 C   0  0  0  0  0  0  0  0  0  0  0  0
    2.4150   16.1050   -1.5860 C   0  0  2  0  0  0  0  0  0  0  0  0
    2.9070   16.7730   -2.9150 C   0  0  0  0  0  0  0  0  0  0  0  0
    5.1428   17.5397    0.1412 H   0  0  0  0  0  0  0  0  0  0  0  0
    4.4717   16.8427   -1.3723 H   0  0  0  0  0  0  0  0  0  0  0  0
    5.1472   18.5072   -1.3723 H   0  0  0  0  0  0  0  0  0  0  0  0
    2.9882   19.1323   -1.1414 H   0  0  0  0  0  0  0  0  0  0  0  0
    2.9893   20.0132    0.8961 H   0  0  0  0  0  0  0  0  0  0  0  0
    2.3794   18.4148    1.5410 H   0  0  0  0  0  0  0  0  0  0  0  0
    4.6877   17.6539    1.8400 H   0  0  0  0  0  0  0  0  0  0  0  0
    5.2810   19.2617    1.2487 H   0  0  0  0  0  0  0  0  0  0  0  0
    3.2742   19.2573    3.1220 H   0  0  0  0  0  0  0  0  0  0  0  0
    6.9313   17.7277    5.0027 H   0  0  0  0  0  0  0  0  0  0  0  0
    6.1851   17.1726    3.4659 H   0  0  0  0  0  0  0  0  0  0  0  0
    7.2991   18.5818    3.4659 H   0  0  0  0  0  0  0  0  0  0  0  0
    5.7293   18.8121    6.3624 H   0  0  0  0  0  0  0  0  0  0  0  0
    4.7222   20.2173    5.8746 H   0  0  0  0  0  0  0  0  0  0  0  0
    4.0183   18.5647    5.8746 H   0  0  0  0  0  0  0  0  0  0  0  0
    2.2044   16.8153    0.4700 H   0  0  0  0  0  0  0  0  0  0  0  0
    0.1461   17.9532   -0.0821 H   0  0  0  0  0  0  0  0  0  0  0  0
    0.8677   18.7301   -1.5077 H   0  0  0  0  0  0  0  0  0  0  0  0
   -0.9187   16.4998   -1.5569 H   0  0  0  0  0  0  0  0  0  0  0  0
    0.0675   17.0053   -2.9262 H   0  0  0  0  0  0  0  0  0  0  0  0
    0.9257   15.3511    0.5148 H   0  0  0  0  0  0  0  0  0  0  0  0
   -0.6062   14.8707   -0.2909 H   0  0  0  0  0  0  0  0  0  0  0  0
    0.7982   13.7507   -0.2909 H   0  0  0  0  0  0  0  0  0  0  0  0
    1.2178   15.0249   -3.7137 H   0  0  0  0  0  0  0  0  0  0  0  0
   -1.1587   14.4817   -2.8771 H   0  0  0  0  0  0  0  0  0  0  0  0
   -0.3602   13.4767   -4.1969 H   0  0  0  0  0  0  0  0  0  0  0  0
   -1.7013   12.1408   -2.3656 H   0  0  0  0  0  0  0  0  0  0  0  0
    1.9974   12.5008   -0.7885 H   0  0  0  0  0  0  0  0  0  0  0  0
    2.3384   10.4699   -3.0803 H   0  0  0  0  0  0  0  0  0  0  0  0
    3.6366   11.0867   -1.9648 H   0  0  0  0  0  0  0  0  0  0  0  0
    2.8675    8.8174   -1.3441 H   0  0  0  0  0  0  0  0  0  0  0  0
    2.5389   10.0500   -0.0637 H   0  0  0  0  0  0  0  0  0  0  0  0
    0.6205    8.6260   -0.2725 H   0  0  0  0  0  0  0  0  0  0  0  0
    1.1990    8.1460   -2.5910 H   0  0  0  0  0  0  0  0  0  0  0  0
   -0.2564   10.1479    1.3082 H   0  0  0  0  0  0  0  0  0  0  0  0
    1.0170   11.3275    0.8461 H   0  0  0  0  0  0  0  0  0  0  0  0
   -0.7094   11.8236    0.8461 H   0  0  0  0  0  0  0  0  0  0  0  0
   -2.0703    9.9249   -0.0283 H   0  0  0  0  0  0  0  0  0  0  0  0
   -2.1710   10.8367   -1.5727 H   0  0  0  0  0  0  0  0  0  0  0  0
   -1.6152    9.1285   -1.5727 H   0  0  0  0  0  0  0  0  0  0  0  0
    2.8169   11.7778   -4.1471 H   0  0  0  0  0  0  0  0  0  0  0  0
    1.4089   12.7326   -4.7238 H   0  0  0  0  0  0  0  0  0  0  0  0
    3.0500   13.4630   -4.7238 H   0  0  0  0  0  0  0  0  0  0  0  0
    4.1110   13.1024   -1.8559 H   0  0  0  0  0  0  0  0  0  0  0  0
    3.9274   14.4092   -3.1572 H   0  0  0  0  0  0  0  0  0  0  0  0
    3.1396   14.5856   -0.2356 H   0  0  0  0  0  0  0  0  0  0  0  0
    4.4259   15.5016   -1.1150 H   0  0  0  0  0  0  0  0  0  0  0  0
    3.5439   17.6377   -2.6768 H   0  0  0  0  0  0  0  0  0  0  0  0
    3.4845   16.0425   -3.5006 H   0  0  0  0  0  0  0  0  0  0  0  0
    2.0381   17.1078   -3.5006 H   0  0  0  0  0  0  0  0  0  0  0  0
  1  2  1  0
  2  3  1  0
  3  4  1  0
  4  5  1  0
  5  6  1  0
  6  7  1  0
  7  8  1  0
  7  9  1  0
  2 10  1  0
 10 11  1  0
 11 12  1  0
 12 13  1  0
 13 14  1  1
 13 15  1  0
 15 16  1  0
 16 17  1  0
 17 18  2  0
 18 19  1  0
 19 20  1  0
 20 21  1  0
 21 22  1  0
 22 23  1  0
 22 24  1  0
 24 25  1  0
 24 26  1  0
 19 27  1  0
 27 28  1  6
 27 29  1  0
 29 30  1  0
 30 31  1  0
 31 32  1  6
  7  5  1  0
 31 10  1  0
 31 13  1  0
 27 15  1  0
 24 18  1  0
  1 33  1  0
  1 34  1  0
  1 35  1  0
  2 36  1  6
  3 37  1  0
  3 38  1  0
  4 39  1  0
  4 40  1  0
  5 41  1  1
  8 42  1  0
  8 43  1  0
  8 44  1  0
  9 45  1  0
  9 46  1  0
  9 47  1  0
 10 48  1  1
 11 49  1  0
 11 50  1  0
 12 51  1  0
 12 52  1  0
 14 53  1  0
 14 54  1  0
 14 55  1  0
 15 56  1  6
 16 57  1  0
 16 58  1  0
 17 59  1  0
 19 60  1  1
 20 61  1  0
 20 62  1  0
 21 63  1  0
 21 64  1  0
 22 65  1  1
 23 66  1  0
 25 67  1  0
 25 68  1  0
 25 69  1  0
 26 70  1  0
 26 71  1  0
 26 72  1  0
 28 73  1  0
 28 74  1  0
 28 75  1  0
 29 76  1  0
 29 77  1  0
 30 78  1  0
 30 79  1  0
 32 80  1  0
 32 81  1  0
 32 82  1  0
M  END
>  <meeko>  (12) 
{"is_sidechain": [false], "intermolecular_energy": 2.731, "internal_energy": -0.839}

$$$$
EPH_relaxed_0001_pdb2pqr_Repair_307_r2_0001_out
     RDKit          3D

 82 86  0  0  0  0  0  0  0  0999 V2000
   -0.7170   16.5890   -5.8610 C   0  0  0  0  0  0  0  0  0  0  0  0
    0.4050   15.8330   -6.5790 C   0  0  2  0  0  0  0  0  0  0  0  0
    0.0270   15.4750   -8.0300 C   0  0  0  0  0  0  0  0  0  0  0  0
    0.5080   16.4990   -9.0620 C   0  0  0  0  0  0  0  0  0  0  0  0
    1.9110   16.2200   -9.5080 C   0  0  2  0  0  0  0  0  0  0  0  0
    2.2660   16.8040  -10.7680 O   0  0  0  0  0  0  0  0  0  0  0  0
    2.2510   15.3680  -10.7170 C   0  0  0  0  0  0  0  0  0  0  0  0
    1.1820   14.7410  -11.5550 C   0  0  0  0  0  0  0  0  0  0  0  0
    3.6110   14.7480  -10.7950 C   0  0  0  0  0  0  0  0  0  0  0  0
    0.7560   14.5680   -5.8050 C   0  0  1  0  0  0  0  0  0  0  0  0
    1.9130   13.7680   -6.4610 C   0  0  0  0  0  0  0  0  0  0  0  0
    2.7340   13.1390   -5.3050 C   0  0  0  0  0  0  0  0  0  0  0  0
    1.8430   13.3170   -4.0530 C   0  0  1  0  0  0  0  0  0  0  0  0
    0.8120   12.1470   -4.1250 C   0  0  0  0  0  0  0  0  0  0  0  0
    2.5840   13.3490   -2.6770 C   0  0  2  0  0  0  0  0  0  0  0  0
    3.3400   12.0590   -2.3120 C   0  0  0  0  0  0  0  0  0  0  0  0
    2.5490   11.0510   -1.5450 C   0  0  0  0  0  0  0  0  0  0  0  0
    1.3810   11.2870   -0.9180 C   0  0  0  0  0  0  0  0  0  0  0  0
    0.7880   12.7000   -0.8610 C   0  0  1  0  0  0  0  0  0  0  0  0
    0.3240   13.0090    0.5860 C   0  0  0  0  0  0  0  0  0  0  0  0
   -0.6320   11.9530    1.1320 C   0  0  0  0  0  0  0  0  0  0  0  0
    0.0140   10.5700    1.1130 C   0  0  2  0  0  0  0  0  0  0  0  0
    1.0980   10.5550    2.0470 O   0  0  0  0  0  0  0  0  0  0  0  0
    0.5290   10.1540   -0.2930 C   0  0  0  0  0  0  0  0  0  0  0  0
   -0.6740    9.8780   -1.2280 C   0  0  0  0  0  0  0  0  0  0  0  0
    1.2830    8.8050   -0.1450 C   0  0  0  0  0  0  0  0  0  0  0  0
    1.6930   13.8560   -1.4720 C   0  0  1  0  0  0  0  0  0  0  0  0
    2.6750   14.3930   -0.3860 C   0  0  0  0  0  0  0  0  0  0  0  0
    0.7730   15.0680   -1.8770 C   0  0  0  0  0  0  0  0  0  0  0  0
    0.1670   15.0370   -3.2930 C   0  0  0  0  0  0  0  0  0  0  0  0
    1.2410   14.7400   -4.3430 C   0  0  2  0  0  0  0  0  0  0  0  0
    2.2810   15.9110   -4.3090 C   0  0  0  0  0  0  0  0  0  0  0  0
   -0.5824   16.4983   -4.7730 H   0  0  0  0  0  0  0  0  0  0  0  0
   -0.6853   17.6507   -6.1472 H   0  0  0  0  0  0  0  0  0  0  0  0
   -1.6891   16.1610   -6.1472 H   0  0  0  0  0  0  0  0  0  0  0  0
    1.2798   16.4986   -6.6204 H   0  0  0  0  0  0  0  0  0  0  0  0
    0.4731   14.4997   -8.2745 H   0  0  0  0  0  0  0  0  0  0  0  0
   -1.0717   15.4587   -8.0813 H   0  0  0  0  0  0  0  0  0  0  0  0
   -0.1579   16.4631   -9.9368 H   0  0  0  0  0  0  0  0  0  0  0  0
    0.4891   17.4936   -8.5925 H   0  0  0  0  0  0  0  0  0  0  0  0
    2.2624   16.1956   -8.4659 H   0  0  0  0  0  0  0  0  0  0  0  0
    0.4189   14.2934  -10.9013 H   0  0  0  0  0  0  0  0  0  0  0  0
    0.7161   15.5090  -12.1899 H   0  0  0  0  0  0  0  0  0  0  0  0
    1.6249   13.9596  -12.1899 H   0  0  0  0  0  0  0  0  0  0  0  0
    3.9934   14.5737   -9.7784 H   0  0  0  0  0  0  0  0  0  0  0  0
    3.5470   13.7901  -11.3320 H   0  0  0  0  0  0  0  0  0  0  0  0
    4.2922   15.4245  -11.3320 H   0  0  0  0  0  0  0  0  0  0  0  0
   -0.2222   14.0652   -5.8200 H   0  0  0  0  0  0  0  0  0  0  0  0
    1.5070   12.9785   -7.1105 H   0  0  0  0  0  0  0  0  0  0  0  0
    2.5426   14.4219   -7.0823 H   0  0  0  0  0  0  0  0  0  0  0  0
    2.9236   12.0729   -5.4985 H   0  0  0  0  0  0  0  0  0  0  0  0
    3.7196   13.6130   -5.1869 H   0  0  0  0  0  0  0  0  0  0  0  0
    0.5382   11.8363   -3.1059 H   0  0  0  0  0  0  0  0  0  0  0  0
   -0.0882   12.4839   -4.6599 H   0  0  0  0  0  0  0  0  0  0  0  0
    1.2595   11.2963   -4.6599 H   0  0  0  0  0  0  0  0  0  0  0  0
    3.3582   14.1121   -2.8451 H   0  0  0  0  0  0  0  0  0  0  0  0
    3.6772   11.5868   -3.2465 H   0  0  0  0  0  0  0  0  0  0  0  0
    4.1639   12.3660   -1.6510 H   0  0  0  0  0  0  0  0  0  0  0  0
    2.9545   10.0301   -1.4874 H   0  0  0  0  0  0  0  0  0  0  0  0
   -0.0796   12.6937   -1.5372 H   0  0  0  0  0  0  0  0  0  0  0  0
    1.2089   13.0543    1.2379 H   0  0  0  0  0  0  0  0  0  0  0  0
   -0.2141   13.9682    0.5664 H   0  0  0  0  0  0  0  0  0  0  0  0
   -0.9001   12.2109    2.1672 H   0  0  0  0  0  0  0  0  0  0  0  0
   -1.5296   11.9299    0.4965 H   0  0  0  0  0  0  0  0  0  0  0  0
   -0.7602    9.8399    1.3916 H   0  0  0  0  0  0  0  0  0  0  0  0
    1.4280   11.4650    2.1290 H   0  0  0  0  0  0  0  0  0  0  0  0
   -1.5692    9.6726   -0.6227 H   0  0  0  0  0  0  0  0  0  0  0  0
   -0.8545   10.7581   -1.8627 H   0  0  0  0  0  0  0  0  0  0  0  0
   -0.4528    9.0073   -1.8627 H   0  0  0  0  0  0  0  0  0  0  0  0
    1.4128    8.5727    0.9223 H   0  0  0  0  0  0  0  0  0  0  0  0
    0.7012    8.0050   -0.6262 H   0  0  0  0  0  0  0  0  0  0  0  0
    2.2692    8.8814   -0.6262 H   0  0  0  0  0  0  0  0  0  0  0  0
    2.2722   14.1728    0.6136 H   0  0  0  0  0  0  0  0  0  0  0  0
    3.6536   13.9045   -0.5028 H   0  0  0  0  0  0  0  0  0  0  0  0
    2.7918   15.4805   -0.5028 H   0  0  0  0  0  0  0  0  0  0  0  0
   -0.0597   15.1081   -1.1594 H   0  0  0  0  0  0  0  0  0  0  0  0
    1.4338   15.9474   -1.8658 H   0  0  0  0  0  0  0  0  0  0  0  0
   -0.6050   14.2547   -3.3368 H   0  0  0  0  0  0  0  0  0  0  0  0
   -0.2707   16.0229   -3.5085 H   0  0  0  0  0  0  0  0  0  0  0  0
    2.5095   16.1683   -3.2642 H   0  0  0  0  0  0  0  0  0  0  0  0
    3.2034   15.5971   -4.8195 H   0  0  0  0  0  0  0  0  0  0  0  0
    1.8604   16.7899   -4.8195 H   0  0  0  0  0  0  0  0  0  0  0  0
  1  2  1  0
  2  3  1  0
  3  4  1  0
  4  5  1  0
  5  6  1  0
  6  7  1  0
  7  8  1  0
  7  9  1  0
  2 10  1  0
 10 11  1  0
 11 12  1  0
 12 13  1  0
 13 14  1  1
 13 15  1  0
 15 16  1  0
 16 17  1  0
 17 18  2  0
 18 19  1  0
 19 20  1  0
 20 21  1  0
 21 22  1  0
 22 23  1  0
 22 24  1  0
 24 25  1  0
 24 26  1  0
 19 27  1  0
 27 28  1  1
 27 29  1  0
 29 30  1  0
 30 31  1  0
 31 32  1  6
  7  5  1  0
 31 10  1  0
 31 13  1  0
 27 15  1  0
 24 18  1  0
  1 33  1  0
  1 34  1  0
  1 35  1  0
  2 36  1  6
  3 37  1  0
  3 38  1  0
  4 39  1  0
  4 40  1  0
  5 41  1  1
  8 42  1  0
  8 43  1  0
  8 44  1  0
  9 45  1  0
  9 46  1  0
  9 47  1  0
 10 48  1  1
 11 49  1  0
 11 50  1  0
 12 51  1  0
 12 52  1  0
 14 53  1  0
 14 54  1  0
 14 55  1  0
 15 56  1  6
 16 57  1  0
 16 58  1  0
 17 59  1  0
 19 60  1  6
 20 61  1  0
 20 62  1  0
 21 63  1  0
 21 64  1  0
 22 65  1  1
 23 66  1  0
 25 67  1  0
 25 68  1  0
 25 69  1  0
 26 70  1  0
 26 71  1  0
 26 72  1  0
 28 73  1  0
 28 74  1  0
 28 75  1  0
 29 76  1  0
 29 77  1  0
 30 78  1  0
 30 79  1  0
 32 80  1  0
 32 81  1  0
 32 82  1  0
M  END
>  <meeko>  (13) 
{"is_sidechain": [false], "intermolecular_energy": 2.731, "internal_energy": -0.839}

$$$$
EPH_relaxed_0001_pdb2pqr_Repair_307_r2_0001_out
     RDKit          3D

 82 86  0  0  0  0  0  0  0  0999 V2000
    4.6950   16.8720   -1.9640 C   0  0  0  0  0  0  0  0  0  0  0  0
    4.7360   15.3420   -1.9270 C   0  0  2  0  0  0  0  0  0  0  0  0
    5.1320   14.7390   -3.2900 C   0  0  0  0  0  0  0  0  0  0  0  0
    6.0480   13.5170   -3.1790 C   0  0  0  0  0  0  0  0  0  0  0  0
    5.6660   12.4480   -4.1580 C   0  0  2  0  0  0  0  0  0  0  0  0
    5.1970   11.2310   -3.5620 O   0  0  0  0  0  0  0  0  0  0  0  0
    6.4230   11.1410   -4.3070 C   0  0  0  0  0  0  0  0  0  0  0  0
    7.6240   10.8350   -3.4670 C   0  0  0  0  0  0  0  0  0  0  0  0
    6.2940   10.3820   -5.5900 C   0  0  0  0  0  0  0  0  0  0  0  0
    3.3820   14.7960   -1.4900 C   0  0  1  0  0  0  0  0  0  0  0  0
    2.3470   15.9180   -1.2110 C   0  0  0  0  0  0  0  0  0  0  0  0
    0.9650   15.3710   -1.6510 C   0  0  0  0  0  0  0  0  0  0  0  0
    1.1920   13.8550   -1.8540 C   0  0  1  0  0  0  0  0  0  0  0  0
    1.1180   13.2430   -0.4200 C   0  0  0  0  0  0  0  0  0  0  0  0
    0.2140   13.1360   -2.8400 C   0  0  2  0  0  0  0  0  0  0  0  0
   -1.2660   13.1510   -2.4190 C   0  0  0  0  0  0  0  0  0  0  0  0
   -1.7030   11.9940   -1.5830 C   0  0  0  0  0  0  0  0  0  0  0  0
   -1.0230   10.8430   -1.4230 C   0  0  0  0  0  0  0  0  0  0  0  0
    0.2740   10.5810   -2.1990 C   0  0  1  0  0  0  0  0  0  0  0  0
    0.2370    9.1520   -2.8020 C   0  0  0  0  0  0  0  0  0  0  0  0
   -0.0420    8.0810   -1.7520 C   0  0  0  0  0  0  0  0  0  0  0  0
   -1.3680    8.3440   -1.0430 C   0  0  2  0  0  0  0  0  0  0  0  0
   -2.4340    8.1780   -1.9830 O   0  0  0  0  0  0  0  0  0  0  0  0
   -1.4510    9.7590   -0.4040 C   0  0  0  0  0  0  0  0  0  0  0  0
   -0.4990    9.8360    0.8160 C   0  0  0  0  0  0  0  0  0  0  0  0
   -2.8880    9.9470    0.1540 C   0  0  0  0  0  0  0  0  0  0  0  0
    0.6780   11.6850   -3.2690 C   0  0  1  0  0  0  0  0  0  0  0  0
   -0.0150   11.3810   -4.6330 C   0  0  0  0  0  0  0  0  0  0  0  0
    2.2280   11.6050   -3.5300 C   0  0  0  0  0  0  0  0  0  0  0  0
    3.1340   12.4320   -2.5980 C   0  0  0  0  0  0  0  0  0  0  0  0
    2.6320   13.8750   -2.4840 C   0  0  2  0  0  0  0  0  0  0  0  0
    2.7150   14.5230   -3.9080 C   0  0  0  0  0  0  0  0  0  0  0  0
    4.6845   17.2635   -0.9361 H   0  0  0  0  0  0  0  0  0  0  0  0
    5.5833   17.2500   -2.4913 H   0  0  0  0  0  0  0  0  0  0  0  0
    3.7877   17.2018   -2.4913 H   0  0  0  0  0  0  0  0  0  0  0  0
    5.5072   15.0491   -1.1994 H   0  0  0  0  0  0  0  0  0  0  0  0
    4.2143   14.4385   -3.8167 H   0  0  0  0  0  0  0  0  0  0  0  0
    5.6931   15.5134   -3.8336 H   0  0  0  0  0  0  0  0  0  0  0  0
    7.0841   13.8287   -3.3775 H   0  0  0  0  0  0  0  0  0  0  0  0
    5.9485   13.1045   -2.1641 H   0  0  0  0  0  0  0  0  0  0  0  0
    5.3436   13.2015   -4.8917 H   0  0  0  0  0  0  0  0  0  0  0  0
    7.3543   10.9037   -2.4028 H   0  0  0  0  0  0  0  0  0  0  0  0
    7.9783    9.8179   -3.6905 H   0  0  0  0  0  0  0  0  0  0  0  0
    8.4218   11.5586   -3.6905 H   0  0  0  0  0  0  0  0  0  0  0  0
    6.1134    9.3193   -5.3708 H   0  0  0  0  0  0  0  0  0  0  0  0
    5.4514   10.7848   -6.1712 H   0  0  0  0  0  0  0  0  0  0  0  0
    7.2223   10.4839   -6.1712 H   0  0  0  0  0  0  0  0  0  0  0  0
    3.6925   14.2209   -0.6052 H   0  0  0  0  0  0  0  0  0  0  0  0
    2.3336   16.1628   -0.1387 H   0  0  0  0  0  0  0  0  0  0  0  0
    2.6017   16.8360   -1.7609 H   0  0  0  0  0  0  0  0  0  0  0  0
    0.2104   15.5496   -0.8708 H   0  0  0  0  0  0  0  0  0  0  0  0
    0.5926   15.8626   -2.5618 H   0  0  0  0  0  0  0  0  0  0  0  0
    1.2150   14.0451    0.3264 H   0  0  0  0  0  0  0  0  0  0  0  0
    0.1518   12.7341   -0.2879 H   0  0  0  0  0  0  0  0  0  0  0  0
    1.9351   12.5185   -0.2879 H   0  0  0  0  0  0  0  0  0  0  0  0
    0.2753   13.7698   -3.7370 H   0  0  0  0  0  0  0  0  0  0  0  0
   -1.4469   14.0721   -1.8456 H   0  0  0  0  0  0  0  0  0  0  0  0
   -1.8479   13.0903   -3.3505 H   0  0  0  0  0  0  0  0  0  0  0  0
   -2.6619   12.0900   -1.0527 H   0  0  0  0  0  0  0  0  0  0  0  0
    1.0883   10.6548   -1.4632 H   0  0  0  0  0  0  0  0  0  0  0  0
   -0.5539    9.1118   -3.5655 H   0  0  0  0  0  0  0  0  0  0  0  0
    1.2275    8.9461   -3.2339 H   0  0  0  0  0  0  0  0  0  0  0  0
   -0.0854    7.0978   -2.2434 H   0  0  0  0  0  0  0  0  0  0  0  0
    0.7655    8.1027   -1.0054 H   0  0  0  0  0  0  0  0  0  0  0  0
   -1.4497    7.6215   -0.2175 H   0  0  0  0  0  0  0  0  0  0  0  0
   -2.4370    7.2470   -2.2620 H   0  0  0  0  0  0  0  0  0  0  0  0
   -1.0877    9.7884    1.7440 H   0  0  0  0  0  0  0  0  0  0  0  0
    0.2057    8.9919    0.7851 H   0  0  0  0  0  0  0  0  0  0  0  0
    0.0609   10.7824    0.7851 H   0  0  0  0  0  0  0  0  0  0  0  0
   -2.8578    9.9430    1.2536 H   0  0  0  0  0  0  0  0  0  0  0  0
   -3.2955   10.9061   -0.1982 H   0  0  0  0  0  0  0  0  0  0  0  0
   -3.5285    9.1250   -0.1982 H   0  0  0  0  0  0  0  0  0  0  0  0
   -1.0084   10.9452   -4.4505 H   0  0  0  0  0  0  0  0  0  0  0  0
   -0.1235   12.3142   -5.2052 H   0  0  0  0  0  0  0  0  0  0  0  0
    0.5981   10.6692   -5.2052 H   0  0  0  0  0  0  0  0  0  0  0  0
    2.5272   10.5507   -3.4351 H   0  0  0  0  0  0  0  0  0  0  0  0
    2.3736   12.0379   -4.5307 H   0  0  0  0  0  0  0  0  0  0  0  0
    3.1376   11.9722   -1.5987 H   0  0  0  0  0  0  0  0  0  0  0  0
    4.1502   12.4464   -3.0188 H   0  0  0  0  0  0  0  0  0  0  0  0
    2.8542   15.6096   -3.8088 H   0  0  0  0  0  0  0  0  0  0  0  0
    3.5654   14.0931   -4.4575 H   0  0  0  0  0  0  0  0  0  0  0  0
    1.7837   14.3213   -4.4575 H   0  0  0  0  0  0  0  0  0  0  0  0
  1  2  1  0
  2  3  1  0
  3  4  1  0
  4  5  1  0
  5  6  1  0
  6  7  1  0
  7  8  1  0
  7  9  1  0
  2 10  1  0
 10 11  1  0
 11 12  1  0
 12 13  1  0
 13 14  1  1
 13 15  1  0
 15 16  1  0
 16 17  1  0
 17 18  2  0
 18 19  1  0
 19 20  1  0
 20 21  1  0
 21 22  1  0
 22 23  1  0
 22 24  1  0
 24 25  1  0
 24 26  1  0
 19 27  1  0
 27 28  1  6
 27 29  1  0
 29 30  1  0
 30 31  1  0
 31 32  1  6
  7  5  1  0
 31 10  1  0
 31 13  1  0
 27 15  1  0
 24 18  1  0
  1 33  1  0
  1 34  1  0
  1 35  1  0
  2 36  1  1
  3 37  1  0
  3 38  1  0
  4 39  1  0
  4 40  1  0
  5 41  1  6
  8 42  1  0
  8 43  1  0
  8 44  1  0
  9 45  1  0
  9 46  1  0
  9 47  1  0
 10 48  1  1
 11 49  1  0
 11 50  1  0
 12 51  1  0
 12 52  1  0
 14 53  1  0
 14 54  1  0
 14 55  1  0
 15 56  1  6
 16 57  1  0
 16 58  1  0
 17 59  1  0
 19 60  1  1
 20 61  1  0
 20 62  1  0
 21 63  1  0
 21 64  1  0
 22 65  1  1
 23 66  1  0
 25 67  1  0
 25 68  1  0
 25 69  1  0
 26 70  1  0
 26 71  1  0
 26 72  1  0
 28 73  1  0
 28 74  1  0
 28 75  1  0
 29 76  1  0
 29 77  1  0
 30 78  1  0
 30 79  1  0
 32 80  1  0
 32 81  1  0
 32 82  1  0
M  END
>  <meeko>  (14) 
{"is_sidechain": [false], "intermolecular_energy": 2.731, "internal_energy": -0.839}

$$$$
EPH_relaxed_0001_pdb2pqr_Repair_307_r2_0001_out
     RDKit          3D

 82 86  0  0  0  0  0  0  0  0999 V2000
    4.1810   10.4170   -4.1010 C   0  0  0  0  0  0  0  0  0  0  0  0
    3.3500   10.8720   -2.8980 C   0  0  2  0  0  0  0  0  0  0  0  0
    1.8400   10.6600   -3.1210 C   0  0  0  0  0  0  0  0  0  0  0  0
    1.2280    9.5910   -2.2110 C   0  0  0  0  0  0  0  0  0  0  0  0
    1.3810    9.9420   -0.7620 C   0  0  2  0  0  0  0  0  0  0  0  0
    0.6120    9.1300    0.1350 O   0  0  0  0  0  0  0  0  0  0  0  0
    0.2610   10.5220    0.0810 C   0  0  0  0  0  0  0  0  0  0  0  0
   -1.0940   10.7860   -0.4970 C   0  0  0  0  0  0  0  0  0  0  0  0
    0.6190   11.2820    1.3200 C   0  0  0  0  0  0  0  0  0  0  0  0
    3.6310   12.3400   -2.5980 C   0  0  1  0  0  0  0  0  0  0  0  0
    4.8530   12.8870   -3.3840 C   0  0  0  0  0  0  0  0  0  0  0  0
    4.5380   14.3650   -3.7290 C   0  0  0  0  0  0  0  0  0  0  0  0
    3.3100   14.7160   -2.8560 C   0  0  1  0  0  0  0  0  0  0  0  0
    3.9000   15.0390   -1.4470 C   0  0  0  0  0  0  0  0  0  0  0  0
    2.3980   15.8730   -3.3790 C   0  0  2  0  0  0  0  0  0  0  0  0
    3.0820   17.2480   -3.4800 C   0  0  0  0  0  0  0  0  0  0  0  0
    2.9840   18.1010   -2.2590 C   0  0  0  0  0  0  0  0  0  0  0  0
    2.1380   17.9020   -1.2320 C   0  0  0  0  0  0  0  0  0  0  0  0
    1.0900   16.7820   -1.2800 C   0  0  1  0  0  0  0  0  0  0  0  0
   -0.2840   17.3380   -0.8230 C   0  0  0  0  0  0  0  0  0  0  0  0
   -0.2160   18.0160    0.5420 C   0  0  0  0  0  0  0  0  0  0  0  0
    0.7930   19.1610    0.5340 C   0  0  2  0  0  0  0  0  0  0  0  0
    0.3100   20.1940   -0.3300 O   0  0  0  0  0  0  0  0  0  0  0  0
    2.2140   18.7220    0.0800 C   0  0  0  0  0  0  0  0  0  0  0  0
    2.8570   17.8330    1.1720 C   0  0  0  0  0  0  0  0  0  0  0  0
    3.0970   19.9940   -0.0200 C   0  0  0  0  0  0  0  0  0  0  0  0
    0.9990   15.9770   -2.6470 C   0  0  1  0  0  0  0  0  0  0  0  0
    0.0350   16.7070   -3.6310 C   0  0  0  0  0  0  0  0  0  0  0  0
    0.3630   14.5630   -2.3690 C   0  0  0  0  0  0  0  0  0  0  0  0
    1.3310   13.4320   -1.9730 C   0  0  0  0  0  0  0  0  0  0  0  0
    2.5170   13.3620   -2.9390 C   0  0  2  0  0  0  0  0  0  0  0  0
    1.9570   13.0160   -4.3610 C   0  0  0  0  0  0  0  0  0  0  0  0
    5.0946    9.9168   -3.7474 H   0  0  0  0  0  0  0  0  0  0  0  0
    3.5913    9.7159   -4.7099 H   0  0  0  0  0  0  0  0  0  0  0  0
    4.4540   11.2915   -4.7099 H   0  0  0  0  0  0  0  0  0  0  0  0
    3.6463   10.2529   -2.0384 H   0  0  0  0  0  0  0  0  0  0  0  0
    1.3239   11.6131   -2.9331 H   0  0  0  0  0  0  0  0  0  0  0  0
    1.7135   10.3116   -4.1567 H   0  0  0  0  0  0  0  0  0  0  0  0
    0.1571    9.4957   -2.4434 H   0  0  0  0  0  0  0  0  0  0  0  0
    1.7568    8.6435   -2.3917 H   0  0  0  0  0  0  0  0  0  0  0  0
    2.4220   10.2583   -0.9242 H   0  0  0  0  0  0  0  0  0  0  0  0
   -1.8191   10.9273    0.3180 H   0  0  0  0  0  0  0  0  0  0  0  0
   -1.0576   11.6940   -1.1169 H   0  0  0  0  0  0  0  0  0  0  0  0
   -1.4012    9.9308   -1.1169 H   0  0  0  0  0  0  0  0  0  0  0  0
    0.3409   10.6916    2.2055 H   0  0  0  0  0  0  0  0  0  0  0  0
    1.7021   11.4737    1.3325 H   0  0  0  0  0  0  0  0  0  0  0  0
    0.0771   12.2392    1.3325 H   0  0  0  0  0  0  0  0  0  0  0  0
    3.7680   12.2824   -1.5081 H   0  0  0  0  0  0  0  0  0  0  0  0
    5.7596   12.8278   -2.7639 H   0  0  0  0  0  0  0  0  0  0  0  0
    5.0318   12.2982   -4.2958 H   0  0  0  0  0  0  0  0  0  0  0  0
    5.3909   15.0127   -3.4779 H   0  0  0  0  0  0  0  0  0  0  0  0
    4.3427   14.5106   -4.8017 H   0  0  0  0  0  0  0  0  0  0  0  0
    3.2176   14.6654   -0.6693 H   0  0  0  0  0  0  0  0  0  0  0  0
    4.8803   14.5518   -1.3395 H   0  0  0  0  0  0  0  0  0  0  0  0
    4.0177   16.1274   -1.3395 H   0  0  0  0  0  0  0  0  0  0  0  0
    2.1946   15.5629   -4.4146 H   0  0  0  0  0  0  0  0  0  0  0  0
    4.1482   17.0822   -3.6939 H   0  0  0  0  0  0  0  0  0  0  0  0
    2.5523   17.7933   -4.2750 H   0  0  0  0  0  0  0  0  0  0  0  0
    3.6609   18.9656   -2.1933 H   0  0  0  0  0  0  0  0  0  0  0  0
    1.4342   16.0126   -0.5732 H   0  0  0  0  0  0  0  0  0  0  0  0
   -0.6316   18.0724   -1.5646 H   0  0  0  0  0  0  0  0  0  0  0  0
   -0.9771   16.4879   -0.7394 H   0  0  0  0  0  0  0  0  0  0  0  0
   -1.2096   18.4138    0.7960 H   0  0  0  0  0  0  0  0  0  0  0  0
    0.1033   17.2725    1.2872 H   0  0  0  0  0  0  0  0  0  0  0  0
    0.8916   19.5217    1.5685 H   0  0  0  0  0  0  0  0  0  0  0  0
    0.1680   19.8020   -1.2080 H   0  0  0  0  0  0  0  0  0  0  0  0
    2.5805   18.2152    2.1657 H   0  0  0  0  0  0  0  0  0  0  0  0
    2.4959   16.7997    1.0631 H   0  0  0  0  0  0  0  0  0  0  0  0
    3.9514   17.8524    1.0631 H   0  0  0  0  0  0  0  0  0  0  0  0
    3.3438   20.3495    0.9913 H   0  0  0  0  0  0  0  0  0  0  0  0
    4.0244   19.7550   -0.5611 H   0  0  0  0  0  0  0  0  0  0  0  0
    2.5488   20.7793   -0.5611 H   0  0  0  0  0  0  0  0  0  0  0  0
   -0.7136   17.2739   -3.0580 H   0  0  0  0  0  0  0  0  0  0  0  0
    0.6114   17.3971   -4.2646 H   0  0  0  0  0  0  0  0  0  0  0  0
   -0.4730   15.9651   -4.2646 H   0  0  0  0  0  0  0  0  0  0  0  0
   -0.3642   14.6800   -1.5520 H   0  0  0  0  0  0  0  0  0  0  0  0
   -0.0701   14.2481   -3.3299 H   0  0  0  0  0  0  0  0  0  0  0  0
    1.7059   13.6190   -0.9559 H   0  0  0  0  0  0  0  0  0  0  0  0
    0.7886   12.4759   -2.0139 H   0  0  0  0  0  0  0  0  0  0  0  0
    1.0253   12.4404   -4.2581 H   0  0  0  0  0  0  0  0  0  0  0  0
    1.7542   13.9464   -4.9116 H   0  0  0  0  0  0  0  0  0  0  0  0
    2.6984   12.4183   -4.9116 H   0  0  0  0  0  0  0  0  0  0  0  0
  1  2  1  0
  2  3  1  0
  3  4  1  0
  4  5  1  0
  5  6  1  0
  6  7  1  0
  7  8  1  0
  7  9  1  0
  2 10  1  0
 10 11  1  0
 11 12  1  0
 12 13  1  0
 13 14  1  1
 13 15  1  0
 15 16  1  0
 16 17  1  0
 17 18  2  0
 18 19  1  0
 19 20  1  0
 20 21  1  0
 21 22  1  0
 22 23  1  0
 22 24  1  0
 24 25  1  0
 24 26  1  0
 19 27  1  0
 27 28  1  6
 27 29  1  0
 29 30  1  0
 30 31  1  0
 31 32  1  6
  7  5  1  0
 31 10  1  0
 31 13  1  0
 27 15  1  0
 24 18  1  0
  1 33  1  0
  1 34  1  0
  1 35  1  0
  2 36  1  1
  3 37  1  0
  3 38  1  0
  4 39  1  0
  4 40  1  0
  5 41  1  1
  8 42  1  0
  8 43  1  0
  8 44  1  0
  9 45  1  0
  9 46  1  0
  9 47  1  0
 10 48  1  1
 11 49  1  0
 11 50  1  0
 12 51  1  0
 12 52  1  0
 14 53  1  0
 14 54  1  0
 14 55  1  0
 15 56  1  6
 16 57  1  0
 16 58  1  0
 17 59  1  0
 19 60  1  1
 20 61  1  0
 20 62  1  0
 21 63  1  0
 21 64  1  0
 22 65  1  1
 23 66  1  0
 25 67  1  0
 25 68  1  0
 25 69  1  0
 26 70  1  0
 26 71  1  0
 26 72  1  0
 28 73  1  0
 28 74  1  0
 28 75  1  0
 29 76  1  0
 29 77  1  0
 30 78  1  0
 30 79  1  0
 32 80  1  0
 32 81  1  0
 32 82  1  0
M  END
>  <meeko>  (15) 
{"is_sidechain": [false], "intermolecular_energy": 2.731, "internal_energy": -0.839}

$$$$
EPH_relaxed_0001_pdb2pqr_Repair_307_r2_0001_out
     RDKit          3D

 82 86  0  0  0  0  0  0  0  0999 V2000
   -1.1560   10.5400    1.4550 C   0  0  0  0  0  0  0  0  0  0  0  0
   -1.7790   10.2170    0.0940 C   0  0  2  0  0  0  0  0  0  0  0  0
   -2.5700    8.8940    0.1160 C   0  0  0  0  0  0  0  0  0  0  0  0
   -4.0260    9.0400   -0.3340 C   0  0  0  0  0  0  0  0  0  0  0  0
   -4.6430    7.7120   -0.6530 C   0  0  2  0  0  0  0  0  0  0  0  0
   -4.6770    7.3860   -2.0480 O   0  0  0  0  0  0  0  0  0  0  0  0
   -5.9510    7.5560   -1.4070 C   0  0  0  0  0  0  0  0  0  0  0  0
   -6.7200    8.7460   -1.8880 C   0  0  0  0  0  0  0  0  0  0  0  0
   -6.7210    6.2820   -1.2480 C   0  0  0  0  0  0  0  0  0  0  0  0
   -0.6920   10.1560   -0.9740 C   0  0  1  0  0  0  0  0  0  0  0  0
   -1.0770    9.2400   -2.1660 C   0  0  0  0  0  0  0  0  0  0  0  0
   -0.4700    9.8850   -3.4390 C   0  0  0  0  0  0  0  0  0  0  0  0
    0.5120   10.9540   -2.9050 C   0  0  1  0  0  0  0  0  0  0  0  0
    1.8060   10.1620   -2.5370 C   0  0  0  0  0  0  0  0  0  0  0  0
    0.8210   12.1490   -3.8640 C   0  0  2  0  0  0  0  0  0  0  0  0
    1.5050   11.7650   -5.1870 C   0  0  0  0  0  0  0  0  0  0  0  0
    2.9980   11.7690   -5.1570 C   0  0  0  0  0  0  0  0  0  0  0  0
    3.7600   12.3400   -4.2050 C   0  0  0  0  0  0  0  0  0  0  0  0
    3.1240   13.1510   -3.0690 C   0  0  1  0  0  0  0  0  0  0  0  0
    3.8980   14.4840   -2.8890 C   0  0  0  0  0  0  0  0  0  0  0  0
    5.3950   14.2680   -2.6850 C   0  0  0  0  0  0  0  0  0  0  0  0
    6.0010   13.5090   -3.8620 C   0  0  2  0  0  0  0  0  0  0  0  0
    5.9380   14.3370   -5.0270 O   0  0  0  0  0  0  0  0  0  0  0  0
    5.2960   12.1530   -4.1460 C   0  0  0  0  0  0  0  0  0  0  0  0
    5.6200   11.1500   -3.0120 C   0  0  0  0  0  0  0  0  0  0  0  0
    5.9110   11.5570   -5.4410 C   0  0  0  0  0  0  0  0  0  0  0  0
    1.5520   13.3670   -3.1670 C   0  0  1  0  0  0  0  0  0  0  0  0
    1.2410   14.6270   -4.0310 C   0  0  0  0  0  0  0  0  0  0  0  0
    0.9840   13.6630   -1.7280 C   0  0  0  0  0  0  0  0  0  0  0  0
    0.5850   12.4440   -0.8750 C   0  0  0  0  0  0  0  0  0  0  0  0
   -0.3040   11.4850   -1.6700 C   0  0  2  0  0  0  0  0  0  0  0  0
   -1.6230   12.2470   -2.0360 C   0  0  0  0  0  0  0  0  0  0  0  0
   -1.8252   10.1931    2.2562 H   0  0  0  0  0  0  0  0  0  0  0  0
   -0.1843   10.0321    1.5433 H   0  0  0  0  0  0  0  0  0  0  0  0
   -1.0110   11.6268    1.5433 H   0  0  0  0  0  0  0  0  0  0  0  0
   -2.4897   11.0223   -0.1436 H   0  0  0  0  0  0  0  0  0  0  0  0
   -2.0696    8.1790   -0.5536 H   0  0  0  0  0  0  0  0  0  0  0  0
   -2.5893    8.5483    1.1601 H   0  0  0  0  0  0  0  0  0  0  0  0
   -4.6024    9.5164    0.4727 H   0  0  0  0  0  0  0  0  0  0  0  0
   -4.0432    9.6543   -1.2463 H   0  0  0  0  0  0  0  0  0  0  0  0
   -4.2846    7.2915    0.2982 H   0  0  0  0  0  0  0  0  0  0  0  0
   -7.0894    9.3176   -1.0238 H   0  0  0  0  0  0  0  0  0  0  0  0
   -6.0636    9.3851   -2.4969 H   0  0  0  0  0  0  0  0  0  0  0  0
   -7.5723    8.4101   -2.4969 H   0  0  0  0  0  0  0  0  0  0  0  0
   -6.8526    6.0642   -0.1778 H   0  0  0  0  0  0  0  0  0  0  0  0
   -7.7067    6.3874   -1.7247 H   0  0  0  0  0  0  0  0  0  0  0  0
   -6.1694    5.4583   -1.7247 H   0  0  0  0  0  0  0  0  0  0  0  0
    0.1475    9.7928   -0.3631 H   0  0  0  0  0  0  0  0  0  0  0  0
   -0.6633    8.2316   -2.0180 H   0  0  0  0  0  0  0  0  0  0  0  0
   -2.1693    9.1438   -2.2540 H   0  0  0  0  0  0  0  0  0  0  0  0
    0.0634    9.1328   -4.0387 H   0  0  0  0  0  0  0  0  0  0  0  0
   -1.2399   10.3168   -4.0953 H   0  0  0  0  0  0  0  0  0  0  0  0
    1.9014   10.1036   -1.4427 H   0  0  0  0  0  0  0  0  0  0  0  0
    1.7453    9.1461   -2.9545 H   0  0  0  0  0  0  0  0  0  0  0  0
    2.6830   10.6782   -2.9545 H   0  0  0  0  0  0  0  0  0  0  0  0
   -0.1858   12.4961   -4.1393 H   0  0  0  0  0  0  0  0  0  0  0  0
    1.1731   10.7524   -5.4600 H   0  0  0  0  0  0  0  0  0  0  0  0
    1.2129   12.5354   -5.9158 H   0  0  0  0  0  0  0  0  0  0  0  0
    3.5194   11.2626   -5.9826 H   0  0  0  0  0  0  0  0  0  0  0  0
    3.2236   12.5355   -2.1628 H   0  0  0  0  0  0  0  0  0  0  0  0
    3.7499   15.1019   -3.7870 H   0  0  0  0  0  0  0  0  0  0  0  0
    3.5060   14.9789   -1.9882 H   0  0  0  0  0  0  0  0  0  0  0  0
    5.8907   15.2457   -2.5933 H   0  0  0  0  0  0  0  0  0  0  0  0
    5.5431   13.6748   -1.7706 H   0  0  0  0  0  0  0  0  0  0  0  0
    7.0425   13.2717   -3.5993 H   0  0  0  0  0  0  0  0  0  0  0  0
    6.7670   14.2150   -5.5200 H   0  0  0  0  0  0  0  0  0  0  0  0
    5.4632   11.6353   -2.0374 H   0  0  0  0  0  0  0  0  0  0  0  0
    4.9588   10.2749   -3.0965 H   0  0  0  0  0  0  0  0  0  0  0  0
    6.6681   10.8271   -3.0965 H   0  0  0  0  0  0  0  0  0  0  0  0
    6.6774   10.8142   -5.1748 H   0  0  0  0  0  0  0  0  0  0  0  0
    5.1206   11.0723   -6.0329 H   0  0  0  0  0  0  0  0  0  0  0  0
    6.3707   12.3622   -6.0329 H   0  0  0  0  0  0  0  0  0  0  0  0
    1.0301   15.4813   -3.3709 H   0  0  0  0  0  0  0  0  0  0  0  0
    2.1087   14.8596   -4.6658 H   0  0  0  0  0  0  0  0  0  0  0  0
    0.3647   14.4291   -4.6658 H   0  0  0  0  0  0  0  0  0  0  0  0
    1.7545   14.2191   -1.1739 H   0  0  0  0  0  0  0  0  0  0  0  0
    0.0480   14.2158   -1.8959 H   0  0  0  0  0  0  0  0  0  0  0  0
    1.4949   11.9126   -0.5593 H   0  0  0  0  0  0  0  0  0  0  0  0
    0.0220   12.7987    0.0009 H   0  0  0  0  0  0  0  0  0  0  0  0
   -2.1415   12.5465   -1.1133 H   0  0  0  0  0  0  0  0  0  0  0  0
   -1.3775   13.1424   -2.6259 H   0  0  0  0  0  0  0  0  0  0  0  0
   -2.2761   11.5870   -2.6259 H   0  0  0  0  0  0  0  0  0  0  0  0
  1  2  1  0
  2  3  1  0
  3  4  1  0
  4  5  1  0
  5  6  1  0
  6  7  1  0
  7  8  1  0
  7  9  1  0
  2 10  1  0
 10 11  1  0
 11 12  1  0
 12 13  1  0
 13 14  1  1
 13 15  1  0
 15 16  1  0
 16 17  1  0
 17 18  2  0
 18 19  1  0
 19 20  1  0
 20 21  1  0
 21 22  1  0
 22 23  1  0
 22 24  1  0
 24 25  1  0
 24 26  1  0
 19 27  1  0
 27 28  1  6
 27 29  1  0
 29 30  1  0
 30 31  1  0
 31 32  1  6
  7  5  1  0
 31 10  1  0
 31 13  1  0
 27 15  1  0
 24 18  1  0
  1 33  1  0
  1 34  1  0
  1 35  1  0
  2 36  1  6
  3 37  1  0
  3 38  1  0
  4 39  1  0
  4 40  1  0
  5 41  1  1
  8 42  1  0
  8 43  1  0
  8 44  1  0
  9 45  1  0
  9 46  1  0
  9 47  1  0
 10 48  1  1
 11 49  1  0
 11 50  1  0
 12 51  1  0
 12 52  1  0
 14 53  1  0
 14 54  1  0
 14 55  1  0
 15 56  1  6
 16 57  1  0
 16 58  1  0
 17 59  1  0
 19 60  1  1
 20 61  1  0
 20 62  1  0
 21 63  1  0
 21 64  1  0
 22 65  1  1
 23 66  1  0
 25 67  1  0
 25 68  1  0
 25 69  1  0
 26 70  1  0
 26 71  1  0
 26 72  1  0
 28 73  1  0
 28 74  1  0
 28 75  1  0
 29 76  1  0
 29 77  1  0
 30 78  1  0
 30 79  1  0
 32 80  1  0
 32 81  1  0
 32 82  1  0
M  END
>  <meeko>  (16) 
{"is_sidechain": [false], "intermolecular_energy": 2.731, "internal_energy": -0.839}

$$$$
EPH_relaxed_0001_pdb2pqr_Repair_307_r2_0001_out
     RDKit          3D

 82 86  0  0  0  0  0  0  0  0999 V2000
    0.3980   17.9280   -0.5830 C   0  0  0  0  0  0  0  0  0  0  0  0
    1.3640   17.1430   -1.4750 C   0  0  2  0  0  0  0  0  0  0  0  0
    1.8490   17.9750   -2.6800 C   0  0  0  0  0  0  0  0  0  0  0  0
    3.3520   18.2620   -2.6630 C   0  0  0  0  0  0  0  0  0  0  0  0
    4.1490   17.0310   -2.3550 C   0  0  2  0  0  0  0  0  0  0  0  0
    5.2700   17.2450   -1.4870 O   0  0  0  0  0  0  0  0  0  0  0  0
    5.5760   16.8180   -2.8250 C   0  0  0  0  0  0  0  0  0  0  0  0
    6.2890   17.8480   -3.6440 C   0  0  0  0  0  0  0  0  0  0  0  0
    6.1010   15.4190   -2.9060 C   0  0  0  0  0  0  0  0  0  0  0  0
    0.6960   15.8620   -1.9620 C   0  0  1  0  0  0  0  0  0  0  0  0
    0.2970   15.9280   -3.4600 C   0  0  0  0  0  0  0  0  0  0  0  0
    0.4910   14.5030   -4.0380 C   0  0  0  0  0  0  0  0  0  0  0  0
    0.6710   13.5990   -2.7950 C   0  0  1  0  0  0  0  0  0  0  0  0
   -0.7780   13.3310   -2.2810 C   0  0  0  0  0  0  0  0  0  0  0  0
    1.4600   12.2680   -3.0170 C   0  0  2  0  0  0  0  0  0  0  0  0
    0.8090   11.2790   -4.0000 C   0  0  0  0  0  0  0  0  0  0  0  0
   -0.1270   10.2930   -3.3850 C   0  0  0  0  0  0  0  0  0  0  0  0
   -0.2190   10.0150   -2.0710 C   0  0  0  0  0  0  0  0  0  0  0  0
    0.7430   10.6550   -1.0620 C   0  0  1  0  0  0  0  0  0  0  0  0
    1.2790    9.5660   -0.0960 C   0  0  0  0  0  0  0  0  0  0  0  0
    0.1590    8.7820    0.5810 C   0  0  0  0  0  0  0  0  0  0  0  0
   -0.7420    8.1140   -0.4540 C   0  0  2  0  0  0  0  0  0  0  0  0
    0.0090    7.1040   -1.1340 O   0  0  0  0  0  0  0  0  0  0  0  0
   -1.3330    9.1120   -1.4880 C   0  0  0  0  0  0  0  0  0  0  0  0
   -2.3810   10.0180   -0.7960 C   0  0  0  0  0  0  0  0  0  0  0  0
   -2.1060    8.2910   -2.5560 C   0  0  0  0  0  0  0  0  0  0  0  0
    1.9040   11.5470   -1.6810 C   0  0  1  0  0  0  0  0  0  0  0  0
    3.1280   10.6510   -2.0430 C   0  0  0  0  0  0  0  0  0  0  0  0
    2.4060   12.5650   -0.5900 C   0  0  0  0  0  0  0  0  0  0  0  0
    1.6610   13.9110   -0.5000 C   0  0  0  0  0  0  0  0  0  0  0  0
    1.5230   14.5540   -1.8830 C   0  0  2  0  0  0  0  0  0  0  0  0
    2.9650   14.8570   -2.4160 C   0  0  0  0  0  0  0  0  0  0  0  0
    0.6355   17.7350    0.4736 H   0  0  0  0  0  0  0  0  0  0  0  0
    0.4987   19.0035   -0.7909 H   0  0  0  0  0  0  0  0  0  0  0  0
   -0.6341   17.6094   -0.7909 H   0  0  0  0  0  0  0  0  0  0  0  0
    2.2475   16.8951   -0.8684 H   0  0  0  0  0  0  0  0  0  0  0  0
    1.6110   17.4234   -3.6015 H   0  0  0  0  0  0  0  0  0  0  0  0
    1.3352   18.9463   -2.6283 H   0  0  0  0  0  0  0  0  0  0  0  0
    3.6530   18.6437   -3.6498 H   0  0  0  0  0  0  0  0  0  0  0  0
    3.5500   19.0040   -1.8755 H   0  0  0  0  0  0  0  0  0  0  0  0
    3.2486   16.4029   -2.4232 H   0  0  0  0  0  0  0  0  0  0  0  0
    6.7867   18.5670   -2.9766 H   0  0  0  0  0  0  0  0  0  0  0  0
    7.0406   17.3558   -4.2787 H   0  0  0  0  0  0  0  0  0  0  0  0
    5.5637   18.3782   -4.2787 H   0  0  0  0  0  0  0  0  0  0  0  0
    6.2494   15.0237   -1.8903 H   0  0  0  0  0  0  0  0  0  0  0  0
    5.3789   14.7869   -3.4436 H   0  0  0  0  0  0  0  0  0  0  0  0
    7.0607   15.4180   -3.4436 H   0  0  0  0  0  0  0  0  0  0  0  0
   -0.1486   15.8163   -1.2588 H   0  0  0  0  0  0  0  0  0  0  0  0
   -0.7541   16.2369   -3.5587 H   0  0  0  0  0  0  0  0  0  0  0  0
    0.9138   16.6608   -4.0009 H   0  0  0  0  0  0  0  0  0  0  0  0
   -0.3920   14.1954   -4.6174 H   0  0  0  0  0  0  0  0  0  0  0  0
    1.3486   14.4443   -4.7243 H   0  0  0  0  0  0  0  0  0  0  0  0
   -0.7826   13.3302   -1.1810 H   0  0  0  0  0  0  0  0  0  0  0  0
   -1.4497   14.1201   -2.6499 H   0  0  0  0  0  0  0  0  0  0  0  0
   -1.1230   12.3538   -2.6499 H   0  0  0  0  0  0  0  0  0  0  0  0
    2.3783   12.6185   -3.5107 H   0  0  0  0  0  0  0  0  0  0  0  0
    0.2479   11.8608   -4.7461 H   0  0  0  0  0  0  0  0  0  0  0  0
    1.6327   10.6900   -4.4297 H   0  0  0  0  0  0  0  0  0  0  0  0
   -0.7991    9.7467   -4.0631 H   0  0  0  0  0  0  0  0  0  0  0  0
    0.1500   11.3924   -0.5011 H   0  0  0  0  0  0  0  0  0  0  0  0
    1.9047    8.8647   -0.6675 H   0  0  0  0  0  0  0  0  0  0  0  0
    1.8552   10.0730    0.6920 H   0  0  0  0  0  0  0  0  0  0  0  0
    0.6004    8.0086    1.2268 H   0  0  0  0  0  0  0  0  0  0  0  0
   -0.4478    9.4800    1.1765 H   0  0  0  0  0  0  0  0  0  0  0  0
   -1.5970    7.6790    0.0842 H   0  0  0  0  0  0  0  0  0  0  0  0
   -0.5890    6.6650   -1.7630 H   0  0  0  0  0  0  0  0  0  0  0  0
   -2.2785    9.9294    0.2956 H   0  0  0  0  0  0  0  0  0  0  0  0
   -2.2171   11.0635   -1.0960 H   0  0  0  0  0  0  0  0  0  0  0  0
   -3.3918    9.7046   -1.0960 H   0  0  0  0  0  0  0  0  0  0  0  0
   -2.7774    7.5780   -2.0552 H   0  0  0  0  0  0  0  0  0  0  0  0
   -2.6980    8.9725   -3.1846 H   0  0  0  0  0  0  0  0  0  0  0  0
   -1.3901    7.7411   -3.1846 H   0  0  0  0  0  0  0  0  0  0  0  0
    3.6100   10.2981   -1.1193 H   0  0  0  0  0  0  0  0  0  0  0  0
    2.7881    9.7867   -2.6325 H   0  0  0  0  0  0  0  0  0  0  0  0
    3.8492   11.2362   -2.6325 H   0  0  0  0  0  0  0  0  0  0  0  0
    2.3212   12.0716    0.3895 H   0  0  0  0  0  0  0  0  0  0  0  0
    3.4326   12.8238   -0.8887 H   0  0  0  0  0  0  0  0  0  0  0  0
    0.6585   13.7402   -0.0808 H   0  0  0  0  0  0  0  0  0  0  0  0
    2.2379   14.5889    0.1463 H   0  0  0  0  0  0  0  0  0  0  0  0
    3.6477   15.0004   -1.5655 H   0  0  0  0  0  0  0  0  0  0  0  0
    3.3145   14.0127   -3.0283 H   0  0  0  0  0  0  0  0  0  0  0  0
    2.9451   15.7706   -3.0283 H   0  0  0  0  0  0  0  0  0  0  0  0
  1  2  1  0
  2  3  1  0
  3  4  1  0
  4  5  1  0
  5  6  1  0
  6  7  1  0
  7  8  1  0
  7  9  1  0
  2 10  1  0
 10 11  1  0
 11 12  1  0
 12 13  1  0
 13 14  1  1
 13 15  1  0
 15 16  1  0
 16 17  1  0
 17 18  2  0
 18 19  1  0
 19 20  1  0
 20 21  1  0
 21 22  1  0
 22 23  1  0
 22 24  1  0
 24 25  1  0
 24 26  1  0
 19 27  1  0
 27 28  1  6
 27 29  1  0
 29 30  1  0
 30 31  1  0
 31 32  1  6
  7  5  1  0
 31 10  1  0
 31 13  1  0
 27 15  1  0
 24 18  1  0
  1 33  1  0
  1 34  1  0
  1 35  1  0
  2 36  1  1
  3 37  1  0
  3 38  1  0
  4 39  1  0
  4 40  1  0
  5 41  1  1
  8 42  1  0
  8 43  1  0
  8 44  1  0
  9 45  1  0
  9 46  1  0
  9 47  1  0
 10 48  1  1
 11 49  1  0
 11 50  1  0
 12 51  1  0
 12 52  1  0
 14 53  1  0
 14 54  1  0
 14 55  1  0
 15 56  1  6
 16 57  1  0
 16 58  1  0
 17 59  1  0
 19 60  1  1
 20 61  1  0
 20 62  1  0
 21 63  1  0
 21 64  1  0
 22 65  1  1
 23 66  1  0
 25 67  1  0
 25 68  1  0
 25 69  1  0
 26 70  1  0
 26 71  1  0
 26 72  1  0
 28 73  1  0
 28 74  1  0
 28 75  1  0
 29 76  1  0
 29 77  1  0
 30 78  1  0
 30 79  1  0
 32 80  1  0
 32 81  1  0
 32 82  1  0
M  END
>  <meeko>  (17) 
{"is_sidechain": [false], "intermolecular_energy": 2.731, "internal_energy": -0.839}

$$$$
EPH_relaxed_0001_pdb2pqr_Repair_307_r2_0001_out
     RDKit          3D

 82 86  0  0  0  0  0  0  0  0999 V2000
    1.2540   20.1240   -0.8620 C   0  0  0  0  0  0  0  0  0  0  0  0
    0.8250   19.8000   -2.2960 C   0  0  2  0  0  0  0  0  0  0  0  0
   -0.7060   19.6760   -2.4300 C   0  0  0  0  0  0  0  0  0  0  0  0
   -1.4750   20.1920   -1.2110 C   0  0  0  0  0  0  0  0  0  0  0  0
   -2.1360   19.0760   -0.4590 C   0  0  2  0  0  0  0  0  0  0  0  0
   -2.6450   19.4410    0.8300 O   0  0  0  0  0  0  0  0  0  0  0  0
   -1.5760   18.4810    0.8190 C   0  0  0  0  0  0  0  0  0  0  0  0
   -0.3010   18.9830    1.4200 C   0  0  0  0  0  0  0  0  0  0  0  0
   -2.0020   17.1010    1.2130 C   0  0  0  0  0  0  0  0  0  0  0  0
    1.4950   18.5130   -2.7610 C   0  0  1  0  0  0  0  0  0  0  0  0
    2.9820   18.7210   -3.1510 C   0  0  0  0  0  0  0  0  0  0  0  0
    3.7370   17.4300   -2.7420 C   0  0  0  0  0  0  0  0  0  0  0  0
    2.6200   16.4040   -2.4400 C   0  0  1  0  0  0  0  0  0  0  0  0
    2.1870   15.8590   -3.8370 C   0  0  0  0  0  0  0  0  0  0  0  0
    2.9930   15.2450   -1.4590 C   0  0  2  0  0  0  0  0  0  0  0  0
    4.1150   14.3130   -1.9460 C   0  0  0  0  0  0  0  0  0  0  0  0
    3.6630   13.1260   -2.7300 C   0  0  0  0  0  0  0  0  0  0  0  0
    2.4000   12.6640   -2.7910 C   0  0  0  0  0  0  0  0  0  0  0  0
    1.2880   13.2960   -1.9440 C   0  0  1  0  0  0  0  0  0  0  0  0
    0.4590   12.1770   -1.2600 C   0  0  0  0  0  0  0  0  0  0  0  0
   -0.0770   11.1540   -2.2560 C   0  0  0  0  0  0  0  0  0  0  0  0
    1.0630   10.5050   -3.0380 C   0  0  2  0  0  0  0  0  0  0  0  0
    1.8490    9.7170   -2.1390 O   0  0  0  0  0  0  0  0  0  0  0  0
    1.9730   11.5360   -3.7630 C   0  0  0  0  0  0  0  0  0  0  0  0
    1.1980   12.1770   -4.9410 C   0  0  0  0  0  0  0  0  0  0  0  0
    3.1620   10.7620   -4.3950 C   0  0  0  0  0  0  0  0  0  0  0  0
    1.7500   14.4240   -0.9240 C   0  0  1  0  0  0  0  0  0  0  0  0
    2.1920   13.7740    0.4230 C   0  0  0  0  0  0  0  0  0  0  0  0
    0.5210   15.3480   -0.5890 C   0  0  0  0  0  0  0  0  0  0  0  0
    0.2760   16.5460   -1.5270 C   0  0  0  0  0  0  0  0  0  0  0  0
    1.5650   17.3420   -1.7480 C   0  0  2  0  0  0  0  0  0  0  0  0
    2.0130   17.9220   -0.3630 C   0  0  0  0  0  0  0  0  0  0  0  0
    0.5818   19.6163   -0.1546 H   0  0  0  0  0  0  0  0  0  0  0  0
    2.2855   19.7775   -0.7007 H   0  0  0  0  0  0  0  0  0  0  0  0
    1.2029   21.2109   -0.7007 H   0  0  0  0  0  0  0  0  0  0  0  0
    1.1453   20.6367   -2.9342 H   0  0  0  0  0  0  0  0  0  0  0  0
   -1.0251   20.2520   -3.3111 H   0  0  0  0  0  0  0  0  0  0  0  0
   -0.9344   18.6041   -2.5236 H   0  0  0  0  0  0  0  0  0  0  0  0
   -0.7733   20.7080   -0.5391 H   0  0  0  0  0  0  0  0  0  0  0  0
   -2.2585   20.8780   -1.5651 H   0  0  0  0  0  0  0  0  0  0  0  0
   -2.4802   18.6169   -1.3975 H   0  0  0  0  0  0  0  0  0  0  0  0
   -0.3762   18.9534    2.5170 H   0  0  0  0  0  0  0  0  0  0  0  0
    0.5343   18.3466    1.0924 H   0  0  0  0  0  0  0  0  0  0  0  0
   -0.1238   20.0180    1.0924 H   0  0  0  0  0  0  0  0  0  0  0  0
   -2.0258   17.0238    2.3100 H   0  0  0  0  0  0  0  0  0  0  0  0
   -3.0048   16.8975    0.8092 H   0  0  0  0  0  0  0  0  0  0  0  0
   -1.2884   16.3677    0.8092 H   0  0  0  0  0  0  0  0  0  0  0  0
    0.8292   18.2495   -3.5960 H   0  0  0  0  0  0  0  0  0  0  0  0
    3.0699   18.8837   -4.2353 H   0  0  0  0  0  0  0  0  0  0  0  0
    3.4034   19.6020   -2.6447 H   0  0  0  0  0  0  0  0  0  0  0  0
    4.3765   17.0770   -3.5645 H   0  0  0  0  0  0  0  0  0  0  0  0
    4.4005   17.5903   -1.8794 H   0  0  0  0  0  0  0  0  0  0  0  0
    1.5079   15.0042   -3.7027 H   0  0  0  0  0  0  0  0  0  0  0  0
    1.6708   16.6531   -4.3964 H   0  0  0  0  0  0  0  0  0  0  0  0
    3.0772   15.5357   -4.3964 H   0  0  0  0  0  0  0  0  0  0  0  0
    3.4105   15.7892   -0.5990 H   0  0  0  0  0  0  0  0  0  0  0  0
    4.7938   14.9013   -2.5810 H   0  0  0  0  0  0  0  0  0  0  0  0
    4.5941   13.9144   -1.0396 H   0  0  0  0  0  0  0  0  0  0  0  0
    4.4263   12.5829   -3.3066 H   0  0  0  0  0  0  0  0  0  0  0  0
    0.6518   13.8559   -2.6453 H   0  0  0  0  0  0  0  0  0  0  0  0
    1.1001   11.6581   -0.5322 H   0  0  0  0  0  0  0  0  0  0  0  0
   -0.4048   12.6523   -0.7723 H   0  0  0  0  0  0  0  0  0  0  0  0
   -0.6285   10.3745   -1.7099 H   0  0  0  0  0  0  0  0  0  0  0  0
   -0.7411   11.6692   -2.9656 H   0  0  0  0  0  0  0  0  0  0  0  0
    0.6113    9.8798   -3.8222 H   0  0  0  0  0  0  0  0  0  0  0  0
    2.6820    9.5000   -2.5900 H   0  0  0  0  0  0  0  0  0  0  0  0
    0.4068   12.8314   -4.5465 H   0  0  0  0  0  0  0  0  0  0  0  0
    1.8909   12.7695   -5.5566 H   0  0  0  0  0  0  0  0  0  0  0  0
    0.7460   11.3853   -5.5566 H   0  0  0  0  0  0  0  0  0  0  0  0
    3.7964   10.3490   -3.5969 H   0  0  0  0  0  0  0  0  0  0  0  0
    2.7759    9.9417   -5.0179 H   0  0  0  0  0  0  0  0  0  0  0  0
    3.7559   11.4471   -5.0179 H   0  0  0  0  0  0  0  0  0  0  0  0
    1.7922   14.3619    1.2624 H   0  0  0  0  0  0  0  0  0  0  0  0
    1.8051   12.7458    0.4783 H   0  0  0  0  0  0  0  0  0  0  0  0
    3.2905   13.7559    0.4783 H   0  0  0  0  0  0  0  0  0  0  0  0
   -0.3821   14.7203   -0.6081 H   0  0  0  0  0  0  0  0  0  0  0  0
    0.7533   15.7921    0.3902 H   0  0  0  0  0  0  0  0  0  0  0  0
   -0.0886   16.1753   -2.4964 H   0  0  0  0  0  0  0  0  0  0  0  0
   -0.4696   17.2081   -1.0626 H   0  0  0  0  0  0  0  0  0  0  0  0
    1.5575   17.3323    0.4461 H   0  0  0  0  0  0  0  0  0  0  0  0
    3.1088   17.8714   -0.2814 H   0  0  0  0  0  0  0  0  0  0  0  0
    1.6872   18.9695   -0.2814 H   0  0  0  0  0  0  0  0  0  0  0  0
  1  2  1  0
  2  3  1  0
  3  4  1  0
  4  5  1  0
  5  6  1  0
  6  7  1  0
  7  8  1  0
  7  9  1  0
  2 10  1  0
 10 11  1  0
 11 12  1  0
 12 13  1  0
 13 14  1  6
 13 15  1  0
 15 16  1  0
 16 17  1  0
 17 18  2  0
 18 19  1  0
 19 20  1  0
 20 21  1  0
 21 22  1  0
 22 23  1  0
 22 24  1  0
 24 25  1  0
 24 26  1  0
 19 27  1  0
 27 28  1  1
 27 29  1  0
 29 30  1  0
 30 31  1  0
 31 32  1  1
  7  5  1  0
 31 10  1  0
 31 13  1  0
 27 15  1  0
 24 18  1  0
  1 33  1  0
  1 34  1  0
  1 35  1  0
  2 36  1  6
  3 37  1  0
  3 38  1  0
  4 39  1  0
  4 40  1  0
  5 41  1  6
  8 42  1  0
  8 43  1  0
  8 44  1  0
  9 45  1  0
  9 46  1  0
  9 47  1  0
 10 48  1  6
 11 49  1  0
 11 50  1  0
 12 51  1  0
 12 52  1  0
 14 53  1  0
 14 54  1  0
 14 55  1  0
 15 56  1  1
 16 57  1  0
 16 58  1  0
 17 59  1  0
 19 60  1  6
 20 61  1  0
 20 62  1  0
 21 63  1  0
 21 64  1  0
 22 65  1  6
 23 66  1  0
 25 67  1  0
 25 68  1  0
 25 69  1  0
 26 70  1  0
 26 71  1  0
 26 72  1  0
 28 73  1  0
 28 74  1  0
 28 75  1  0
 29 76  1  0
 29 77  1  0
 30 78  1  0
 30 79  1  0
 32 80  1  0
 32 81  1  0
 32 82  1  0
M  END
>  <meeko>  (18) 
{"is_sidechain": [false], "intermolecular_energy": 2.731, "internal_energy": -0.839}

$$$$
EPH_relaxed_0001_pdb2pqr_Repair_307_r2_0001_out
     RDKit          3D

 82 86  0  0  0  0  0  0  0  0999 V2000
    0.4460    9.1350   -2.6500 C   0  0  0  0  0  0  0  0  0  0  0  0
    1.2370   10.3100   -3.2310 C   0  0  2  0  0  0  0  0  0  0  0  0
    2.7160   10.2870   -2.7940 C   0  0  0  0  0  0  0  0  0  0  0  0
    3.6970   10.6040   -3.9250 C   0  0  0  0  0  0  0  0  0  0  0  0
    5.0750   10.8790   -3.4030 C   0  0  2  0  0  0  0  0  0  0  0  0
    5.6620   12.0990   -3.8750 O   0  0  0  0  0  0  0  0  0  0  0  0
    6.3160   10.8840   -4.2760 C   0  0  0  0  0  0  0  0  0  0  0  0
    6.2370   10.6070   -5.7450 C   0  0  0  0  0  0  0  0  0  0  0  0
    7.6480   10.6740   -3.6280 C   0  0  0  0  0  0  0  0  0  0  0  0
    0.5920   11.6270   -2.8180 C   0  0  1  0  0  0  0  0  0  0  0  0
   -0.6480   11.4250   -1.9060 C   0  0  0  0  0  0  0  0  0  0  0  0
   -0.6600   12.6050   -0.9000 C   0  0  0  0  0  0  0  0  0  0  0  0
    0.3650   13.6130   -1.4690 C   0  0  1  0  0  0  0  0  0  0  0  0
   -0.4090   14.3890   -2.5800 C   0  0  0  0  0  0  0  0  0  0  0  0
    1.0220   14.5870   -0.4370 C   0  0  2  0  0  0  0  0  0  0  0  0
    0.0450   15.5400    0.2750 C   0  0  0  0  0  0  0  0  0  0  0  0
   -0.1720   16.8520   -0.4020 C   0  0  0  0  0  0  0  0  0  0  0  0
    0.6010   17.3680   -1.3760 C   0  0  0  0  0  0  0  0  0  0  0  0
    1.8830   16.6550   -1.8240 C   0  0  1  0  0  0  0  0  0  0  0  0
    3.0400   17.6830   -1.9240 C   0  0  0  0  0  0  0  0  0  0  0  0
    2.6910   18.8710   -2.8150 C   0  0  0  0  0  0  0  0  0  0  0  0
    1.4450   19.5890   -2.3040 C   0  0  2  0  0  0  0  0  0  0  0  0
    1.7460   20.1940   -1.0420 O   0  0  0  0  0  0  0  0  0  0  0  0
    0.2150   18.6500   -2.1530 C   0  0  0  0  0  0  0  0  0  0  0  0
   -0.2970   18.2340   -3.5540 C   0  0  0  0  0  0  0  0  0  0  0  0
   -0.9310   19.4670   -1.4970 C   0  0  0  0  0  0  0  0  0  0  0  0
    2.2850   15.3630   -0.9910 C   0  0  1  0  0  0  0  0  0  0  0  0
    3.1350   15.7740    0.2510 C   0  0  0  0  0  0  0  0  0  0  0  0
    3.2090   14.4460   -1.8770 C   0  0  0  0  0  0  0  0  0  0  0  0
    2.5040   13.4220   -2.7870 C   0  0  0  0  0  0  0  0  0  0  0  0
    1.4600   12.6200   -2.0040 C   0  0  2  0  0  0  0  0  0  0  0  0
    2.2120   11.8120   -0.8920 C   0  0  0  0  0  0  0  0  0  0  0  0
    0.4763    9.1801   -1.5513 H   0  0  0  0  0  0  0  0  0  0  0  0
   -0.5984    9.1919   -2.9906 H   0  0  0  0  0  0  0  0  0  0  0  0
    0.8917    8.1888   -2.9906 H   0  0  0  0  0  0  0  0  0  0  0  0
    1.2149   10.2137   -4.3266 H   0  0  0  0  0  0  0  0  0  0  0  0
    2.8539   11.0314   -1.9960 H   0  0  0  0  0  0  0  0  0  0  0  0
    2.9353    9.2635   -2.4559 H   0  0  0  0  0  0  0  0  0  0  0  0
    3.7404    9.7448   -4.6105 H   0  0  0  0  0  0  0  0  0  0  0  0
    3.3411   11.5056   -4.4449 H   0  0  0  0  0  0  0  0  0  0  0  0
    4.8420   10.3716   -2.4552 H   0  0  0  0  0  0  0  0  0  0  0  0
    5.9385    9.5605   -5.9053 H   0  0  0  0  0  0  0  0  0  0  0  0
    5.4935   11.2748   -6.2046 H   0  0  0  0  0  0  0  0  0  0  0  0
    7.2209   10.7822   -6.2046 H   0  0  0  0  0  0  0  0  0  0  0  0
    7.5307   10.6925   -2.5344 H   0  0  0  0  0  0  0  0  0  0  0  0
    8.0564    9.7004   -3.9366 H   0  0  0  0  0  0  0  0  0  0  0  0
    8.3362   11.4747   -3.9366 H   0  0  0  0  0  0  0  0  0  0  0  0
    0.3739   12.0449   -3.8119 H   0  0  0  0  0  0  0  0  0  0  0  0
   -1.5675   11.4324   -2.5097 H   0  0  0  0  0  0  0  0  0  0  0  0
   -0.5997   10.4592   -1.3816 H   0  0  0  0  0  0  0  0  0  0  0  0
   -1.6608   13.0582   -0.8449 H   0  0  0  0  0  0  0  0  0  0  0  0
   -0.4073   12.2848    0.1216 H   0  0  0  0  0  0  0  0  0  0  0  0
   -1.1122   15.0940   -2.1127 H   0  0  0  0  0  0  0  0  0  0  0  0
    0.3057   14.9442   -3.2052 H   0  0  0  0  0  0  0  0  0  0  0  0
   -0.9661   13.6757   -3.2052 H   0  0  0  0  0  0  0  0  0  0  0  0
    1.3858   13.8974    0.3389 H   0  0  0  0  0  0  0  0  0  0  0  0
   -0.9280   15.0329    0.3537 H   0  0  0  0  0  0  0  0  0  0  0  0
    0.5008   15.7716    1.2490 H   0  0  0  0  0  0  0  0  0  0  0  0
   -1.0374   17.4484   -0.0775 H   0  0  0  0  0  0  0  0  0  0  0  0
    1.6671   16.2387   -2.8190 H   0  0  0  0  0  0  0  0  0  0  0  0
    3.2698   18.0547   -0.9145 H   0  0  0  0  0  0  0  0  0  0  0  0
    3.9039   17.1711   -2.3730 H   0  0  0  0  0  0  0  0  0  0  0  0
    3.5353   19.5760   -2.8219 H   0  0  0  0  0  0  0  0  0  0  0  0
    2.4907   18.5006   -3.8312 H   0  0  0  0  0  0  0  0  0  0  0  0
    1.1710   20.3469   -3.0527 H   0  0  0  0  0  0  0  0  0  0  0  0
    1.8070   21.1540   -1.1830 H   0  0  0  0  0  0  0  0  0  0  0  0
   -1.1464   17.5438   -3.4439 H   0  0  0  0  0  0  0  0  0  0  0  0
   -0.6205   19.1284   -4.1066 H   0  0  0  0  0  0  0  0  0  0  0  0
    0.5122   17.7343   -4.1066 H   0  0  0  0  0  0  0  0  0  0  0  0
   -0.8448   19.4056   -0.4021 H   0  0  0  0  0  0  0  0  0  0  0  0
   -0.8586   20.5184   -1.8121 H   0  0  0  0  0  0  0  0  0  0  0  0
   -1.9014   19.0558   -1.8121 H   0  0  0  0  0  0  0  0  0  0  0  0
    2.5915   15.5112    1.1705 H   0  0  0  0  0  0  0  0  0  0  0  0
    4.0974   15.2417    0.2291 H   0  0  0  0  0  0  0  0  0  0  0  0
    3.3154   16.8589    0.2291 H   0  0  0  0  0  0  0  0  0  0  0  0
    3.8117   15.1037   -2.5206 H   0  0  0  0  0  0  0  0  0  0  0  0
    3.7885   13.8442   -1.1614 H   0  0  0  0  0  0  0  0  0  0  0  0
    2.0053   13.9552   -3.6098 H   0  0  0  0  0  0  0  0  0  0  0  0
    3.2584   12.7251   -3.1811 H   0  0  0  0  0  0  0  0  0  0  0  0
    1.8865   12.1617    0.0988 H   0  0  0  0  0  0  0  0  0  0  0  0
    1.9813   10.7416   -0.9971 H   0  0  0  0  0  0  0  0  0  0  0  0
    3.2962   11.9654   -0.9971 H   0  0  0  0  0  0  0  0  0  0  0  0
  1  2  1  0
  2  3  1  0
  3  4  1  0
  4  5  1  0
  5  6  1  0
  6  7  1  0
  7  8  1  0
  7  9  1  0
  2 10  1  0
 10 11  1  0
 11 12  1  0
 12 13  1  0
 13 14  1  6
 13 15  1  0
 15 16  1  0
 16 17  1  0
 17 18  2  0
 18 19  1  0
 19 20  1  0
 20 21  1  0
 21 22  1  0
 22 23  1  0
 22 24  1  0
 24 25  1  0
 24 26  1  0
 19 27  1  0
 27 28  1  1
 27 29  1  0
 29 30  1  0
 30 31  1  0
 31 32  1  1
  7  5  1  0
 31 10  1  0
 31 13  1  0
 27 15  1  0
 24 18  1  0
  1 33  1  0
  1 34  1  0
  1 35  1  0
  2 36  1  6
  3 37  1  0
  3 38  1  0
  4 39  1  0
  4 40  1  0
  5 41  1  1
  8 42  1  0
  8 43  1  0
  8 44  1  0
  9 45  1  0
  9 46  1  0
  9 47  1  0
 10 48  1  6
 11 49  1  0
 11 50  1  0
 12 51  1  0
 12 52  1  0
 14 53  1  0
 14 54  1  0
 14 55  1  0
 15 56  1  1
 16 57  1  0
 16 58  1  0
 17 59  1  0
 19 60  1  6
 20 61  1  0
 20 62  1  0
 21 63  1  0
 21 64  1  0
 22 65  1  6
 23 66  1  0
 25 67  1  0
 25 68  1  0
 25 69  1  0
 26 70  1  0
 26 71  1  0
 26 72  1  0
 28 73  1  0
 28 74  1  0
 28 75  1  0
 29 76  1  0
 29 77  1  0
 30 78  1  0
 30 79  1  0
 32 80  1  0
 32 81  1  0
 32 82  1  0
M  END
>  <meeko>  (19) 
{"is_sidechain": [false], "intermolecular_energy": 2.731, "internal_energy": -0.839}

$$$$
