EPH_relaxed_0001_pdb2pqr_Repair_217_r2_0001_out
     RDKit          3D

 82 86  0  0  0  0  0  0  0  0999 V2000
   -1.7140    8.5910   -1.8780 C   0  0  0  0  0  0  0  0  0  0  0  0
   -2.0910    9.1100   -0.4880 C   0  0  2  0  0  0  0  0  0  0  0  0
   -3.5840    9.4800   -0.3910 C   0  0  0  0  0  0  0  0  0  0  0  0
   -4.5090    8.2700   -0.2370 C   0  0  0  0  0  0  0  0  0  0  0  0
   -5.2080    7.9390   -1.5210 C   0  0  2  0  0  0  0  0  0  0  0  0
   -6.3530    8.7540   -1.8070 O   0  0  0  0  0  0  0  0  0  0  0  0
   -6.6080    7.3570   -1.5860 C   0  0  0  0  0  0  0  0  0  0  0  0
   -7.3920    7.0710   -0.3440 C   0  0  0  0  0  0  0  0  0  0  0  0
   -7.0190    6.6170   -2.8210 C   0  0  0  0  0  0  0  0  0  0  0  0
   -1.2310   10.3180   -0.1330 C   0  0  1  0  0  0  0  0  0  0  0  0
   -0.2030   10.0110    0.9890 C   0  0  0  0  0  0  0  0  0  0  0  0
    1.0690   10.8380    0.6690 C   0  0  0  0  0  0  0  0  0  0  0  0
    0.6200   11.8350   -0.4250 C   0  0  1  0  0  0  0  0  0  0  0  0
   -0.0870   12.9900    0.3520 C   0  0  0  0  0  0  0  0  0  0  0  0
    1.7430   12.3780   -1.3680 C   0  0  2  0  0  0  0  0  0  0  0  0
    2.8450   13.1930   -0.6690 C   0  0  0  0  0  0  0  0  0  0  0  0
    2.5960   14.6620   -0.5840 C   0  0  0  0  0  0  0  0  0  0  0  0
    1.6760   15.3410   -1.2940 C   0  0  0  0  0  0  0  0  0  0  0  0
    0.8330   14.6390   -2.3670 C   0  0  1  0  0  0  0  0  0  0  0  0
    0.8110   15.5030   -3.6550 C   0  0  0  0  0  0  0  0  0  0  0  0
    0.3480   16.9330   -3.3930 C   0  0  0  0  0  0  0  0  0  0  0  0
    1.2450   17.6170   -2.3640 C   0  0  2  0  0  0  0  0  0  0  0  0
    2.5490   17.7850   -2.9300 O   0  0  0  0  0  0  0  0  0  0  0  0
    1.3530   16.8320   -1.0270 C   0  0  0  0  0  0  0  0  0  0  0  0
    0.0040   16.9090   -0.2690 C   0  0  0  0  0  0  0  0  0  0  0  0
    2.3960   17.5540   -0.1320 C   0  0  0  0  0  0  0  0  0  0  0  0
    1.2040   13.1210   -2.6570 C   0  0  1  0  0  0  0  0  0  0  0  0
    2.3400   13.0450   -3.7220 C   0  0  0  0  0  0  0  0  0  0  0  0
   -0.0450   12.3980   -3.2860 C   0  0  0  0  0  0  0  0  0  0  0  0
   -1.0570   11.7780   -2.3040 C   0  0  0  0  0  0  0  0  0  0  0  0
   -0.3470   10.9160   -1.2560 C   0  0  2  0  0  0  0  0  0  0  0  0
    0.3560    9.7340   -2.0060 C   0  0  0  0  0  0  0  0  0  0  0  0
   -1.0703    7.7048   -1.7764 H   0  0  0  0  0  0  0  0  0  0  0  0
   -2.6271    8.3198   -2.4282 H   0  0  0  0  0  0  0  0  0  0  0  0
   -1.1737    9.3755   -2.4282 H   0  0  0  0  0  0  0  0  0  0  0  0
   -1.9053    8.2973    0.2296 H   0  0  0  0  0  0  0  0  0  0  0  0
   -3.7232   10.1367    0.4804 H   0  0  0  0  0  0  0  0  0  0  0  0
   -3.8550    9.9736   -1.3359 H   0  0  0  0  0  0  0  0  0  0  0  0
   -3.9110    7.4019    0.0773 H   0  0  0  0  0  0  0  0  0  0  0  0
   -5.2727    8.5160    0.5154 H   0  0  0  0  0  0  0  0  0  0  0  0
   -4.2593    7.6323   -1.9856 H   0  0  0  0  0  0  0  0  0  0  0  0
   -6.7754    7.2959    0.5387 H   0  0  0  0  0  0  0  0  0  0  0  0
   -8.2963    7.6972   -0.3289 H   0  0  0  0  0  0  0  0  0  0  0  0
   -7.6807    6.0097   -0.3289 H   0  0  0  0  0  0  0  0  0  0  0  0
   -7.5350    5.6879   -2.5371 H   0  0  0  0  0  0  0  0  0  0  0  0
   -7.6971    7.2458   -3.4166 H   0  0  0  0  0  0  0  0  0  0  0  0
   -6.1268    6.3736   -3.4166 H   0  0  0  0  0  0  0  0  0  0  0  0
   -2.0209   11.0314    0.1445 H   0  0  0  0  0  0  0  0  0  0  0  0
   -0.6105   10.3061    1.9672 H   0  0  0  0  0  0  0  0  0  0  0  0
    0.0254    8.9358    1.0319 H   0  0  0  0  0  0  0  0  0  0  0  0
    1.4189   11.3743    1.5634 H   0  0  0  0  0  0  0  0  0  0  0  0
    1.9063   10.2054    0.3392 H   0  0  0  0  0  0  0  0  0  0  0  0
    0.0164   12.8210    1.4340 H   0  0  0  0  0  0  0  0  0  0  0  0
    0.3783   13.9503    0.0847 H   0  0  0  0  0  0  0  0  0  0  0  0
   -1.1538   13.0125    0.0847 H   0  0  0  0  0  0  0  0  0  0  0  0
    2.2289   11.4532   -1.7124 H   0  0  0  0  0  0  0  0  0  0  0  0
    2.9549   12.8072    0.3553 H   0  0  0  0  0  0  0  0  0  0  0  0
    3.7485   13.0731   -1.2848 H   0  0  0  0  0  0  0  0  0  0  0  0
    3.2166   15.2383    0.1180 H   0  0  0  0  0  0  0  0  0  0  0  0
   -0.1829   14.5605   -1.9525 H   0  0  0  0  0  0  0  0  0  0  0  0
    1.8265   15.5329   -4.0768 H   0  0  0  0  0  0  0  0  0  0  0  0
    0.0958   15.0433   -4.3530 H   0  0  0  0  0  0  0  0  0  0  0  0
    0.3824   17.5007   -4.3345 H   0  0  0  0  0  0  0  0  0  0  0  0
   -0.6787   16.9031   -2.9992 H   0  0  0  0  0  0  0  0  0  0  0  0
    0.7885   18.5879   -2.1211 H   0  0  0  0  0  0  0  0  0  0  0  0
    3.0930   17.0310   -2.6450 H   0  0  0  0  0  0  0  0  0  0  0  0
    0.1913   16.8983    0.8149 H   0  0  0  0  0  0  0  0  0  0  0  0
   -0.5174   17.8384   -0.5418 H   0  0  0  0  0  0  0  0  0  0  0  0
   -0.6197   16.0450   -0.5418 H   0  0  0  0  0  0  0  0  0  0  0  0
    2.1507   17.3842    0.9268 H   0  0  0  0  0  0  0  0  0  0  0  0
    3.3993   17.1562   -0.3443 H   0  0  0  0  0  0  0  0  0  0  0  0
    2.3769   18.6331   -0.3443 H   0  0  0  0  0  0  0  0  0  0  0  0
    3.3141   12.9798   -3.2151 H   0  0  0  0  0  0  0  0  0  0  0  0
    2.1938   12.1546   -4.3512 H   0  0  0  0  0  0  0  0  0  0  0  0
    2.3137   13.9469   -4.3512 H   0  0  0  0  0  0  0  0  0  0  0  0
   -0.5842   13.1368   -3.8970 H   0  0  0  0  0  0  0  0  0  0  0  0
    0.3681   11.5475   -3.8482 H   0  0  0  0  0  0  0  0  0  0  0  0
   -1.6049   12.5847   -1.7950 H   0  0  0  0  0  0  0  0  0  0  0  0
   -1.7503   11.1398   -2.8715 H   0  0  0  0  0  0  0  0  0  0  0  0
    0.7744    9.0306   -1.2711 H   0  0  0  0  0  0  0  0  0  0  0  0
   -0.3783    9.2116   -2.6368 H   0  0  0  0  0  0  0  0  0  0  0  0
    1.1656   10.1298   -2.6368 H   0  0  0  0  0  0  0  0  0  0  0  0
  1  2  1  0
  2  3  1  0
  3  4  1  0
  4  5  1  0
  5  6  1  0
  6  7  1  0
  7  8  1  0
  7  9  1  0
  2 10  1  0
 10 11  1  0
 11 12  1  0
 12 13  1  0
 13 14  1  1
 13 15  1  0
 15 16  1  0
 16 17  1  0
 17 18  2  0
 18 19  1  0
 19 20  1  0
 20 21  1  0
 21 22  1  0
 22 23  1  0
 22 24  1  0
 24 25  1  0
 24 26  1  0
 19 27  1  0
 27 28  1  6
 27 29  1  0
 29 30  1  0
 30 31  1  0
 31 32  1  6
  7  5  1  0
 31 10  1  0
 31 13  1  0
 27 15  1  0
 24 18  1  0
  1 33  1  0
  1 34  1  0
  1 35  1  0
  2 36  1  1
  3 37  1  0
  3 38  1  0
  4 39  1  0
  4 40  1  0
  5 41  1  6
  8 42  1  0
  8 43  1  0
  8 44  1  0
  9 45  1  0
  9 46  1  0
  9 47  1  0
 10 48  1  1
 11 49  1  0
 11 50  1  0
 12 51  1  0
 12 52  1  0
 14 53  1  0
 14 54  1  0
 14 55  1  0
 15 56  1  6
 16 57  1  0
 16 58  1  0
 17 59  1  0
 19 60  1  1
 20 61  1  0
 20 62  1  0
 21 63  1  0
 21 64  1  0
 22 65  1  1
 23 66  1  0
 25 67  1  0
 25 68  1  0
 25 69  1  0
 26 70  1  0
 26 71  1  0
 26 72  1  0
 28 73  1  0
 28 74  1  0
 28 75  1  0
 29 76  1  0
 29 77  1  0
 30 78  1  0
 30 79  1  0
 32 80  1  0
 32 81  1  0
 32 82  1  0
M  END
>  <meeko>  (1) 
{"is_sidechain": [false], "intermolecular_energy": 2.731, "internal_energy": -0.839}

$$$$
EPH_relaxed_0001_pdb2pqr_Repair_217_r2_0001_out
     RDKit          3D

 82 86  0  0  0  0  0  0  0  0999 V2000
    4.2220   17.5660   -0.5800 C   0  0  0  0  0  0  0  0  0  0  0  0
    2.8580   18.1350   -0.1790 C   0  0  2  0  0  0  0  0  0  0  0  0
    2.9010   18.8320    1.1960 C   0  0  0  0  0  0  0  0  0  0  0  0
    4.2460   18.6940    1.9140 C   0  0  0  0  0  0  0  0  0  0  0  0
    4.1810   19.2160    3.3180 C   0  0  2  0  0  0  0  0  0  0  0  0
    5.1780   20.1940    3.6390 O   0  0  0  0  0  0  0  0  0  0  0  0
    5.2530   18.9530    4.3590 C   0  0  0  0  0  0  0  0  0  0  0  0
    6.4660   18.1370    4.0400 C   0  0  0  0  0  0  0  0  0  0  0  0
    4.8890   19.0720    5.8060 C   0  0  0  0  0  0  0  0  0  0  0  0
    1.8150   17.0230   -0.1670 C   0  0  1  0  0  0  0  0  0  0  0  0
    0.3850   17.5420   -0.4730 C   0  0  0  0  0  0  0  0  0  0  0  0
   -0.3330   16.4270   -1.2760 C   0  0  0  0  0  0  0  0  0  0  0  0
    0.5770   15.1870   -1.1210 C   0  0  1  0  0  0  0  0  0  0  0  0
    0.2100   14.5920    0.2750 C   0  0  0  0  0  0  0  0  0  0  0  0
    0.4780   14.1110   -2.2510 C   0  0  2  0  0  0  0  0  0  0  0  0
   -0.9000   13.4410   -2.3950 C   0  0  0  0  0  0  0  0  0  0  0  0
   -1.0940   12.2020   -1.5860 C   0  0  0  0  0  0  0  0  0  0  0  0
   -0.1140   11.4900   -0.9980 C   0  0  0  0  0  0  0  0  0  0  0  0
    1.3600   11.8610   -1.2020 C   0  0  1  0  0  0  0  0  0  0  0  0
    2.1760   10.5820   -1.5230 C   0  0  0  0  0  0  0  0  0  0  0  0
    1.9890    9.4890   -0.4750 C   0  0  0  0  0  0  0  0  0  0  0  0
    0.5180    9.1070   -0.3420 C   0  0  2  0  0  0  0  0  0  0  0  0
    0.0930    8.4810   -1.5570 O   0  0  0  0  0  0  0  0  0  0  0  0
   -0.4050   10.3180   -0.0280 C   0  0  0  0  0  0  0  0  0  0  0  0
   -0.1460   10.8080    1.4180 C   0  0  0  0  0  0  0  0  0  0  0  0
   -1.8750    9.8190   -0.0610 C   0  0  0  0  0  0  0  0  0  0  0  0
    1.6430   13.0390   -2.2300 C   0  0  1  0  0  0  0  0  0  0  0  0
    1.7480   12.4690   -3.6780 C   0  0  0  0  0  0  0  0  0  0  0  0
    3.0420   13.6830   -1.9030 C   0  0  0  0  0  0  0  0  0  0  0  0
    3.0580   14.8220   -0.8660 C   0  0  0  0  0  0  0  0  0  0  0  0
    1.9910   15.8720   -1.1890 C   0  0  2  0  0  0  0  0  0  0  0  0
    2.3460   16.5040   -2.5780 C   0  0  0  0  0  0  0  0  0  0  0  0
    4.7992   17.3252    0.3249 H   0  0  0  0  0  0  0  0  0  0  0  0
    4.0775   16.6531   -1.1765 H   0  0  0  0  0  0  0  0  0  0  0  0
    4.7691   18.3109   -1.1765 H   0  0  0  0  0  0  0  0  0  0  0  0
    2.5834   18.8948   -0.9255 H   0  0  0  0  0  0  0  0  0  0  0  0
    2.6938   19.9023    1.0494 H   0  0  0  0  0  0  0  0  0  0  0  0
    2.1469   18.3413    1.8289 H   0  0  0  0  0  0  0  0  0  0  0  0
    4.5281   17.6311    1.9415 H   0  0  0  0  0  0  0  0  0  0  0  0
    4.9916   19.2854    1.3623 H   0  0  0  0  0  0  0  0  0  0  0  0
    3.0879   19.0943    3.3379 H   0  0  0  0  0  0  0  0  0  0  0  0
    6.9467   17.8136    4.9751 H   0  0  0  0  0  0  0  0  0  0  0  0
    6.1702   17.2535    3.4552 H   0  0  0  0  0  0  0  0  0  0  0  0
    7.1728   18.7440    3.4552 H   0  0  0  0  0  0  0  0  0  0  0  0
    5.7528   18.7896    6.4258 H   0  0  0  0  0  0  0  0  0  0  0  0
    4.6025   20.1106    6.0278 H   0  0  0  0  0  0  0  0  0  0  0  0
    4.0443   18.4032    6.0278 H   0  0  0  0  0  0  0  0  0  0  0  0
    1.9614   16.6437    0.8551 H   0  0  0  0  0  0  0  0  0  0  0  0
   -0.1546   17.7409    0.4647 H   0  0  0  0  0  0  0  0  0  0  0  0
    0.4195   18.4810   -1.0450 H   0  0  0  0  0  0  0  0  0  0  0  0
   -1.3318   16.2302   -0.8593 H   0  0  0  0  0  0  0  0  0  0  0  0
   -0.4850   16.7038   -2.3297 H   0  0  0  0  0  0  0  0  0  0  0  0
    0.6106   15.2415    1.0672 H   0  0  0  0  0  0  0  0  0  0  0  0
   -0.8840   14.5291    0.3707 H   0  0  0  0  0  0  0  0  0  0  0  0
    0.6448   13.5861    0.3707 H   0  0  0  0  0  0  0  0  0  0  0  0
    0.6145   14.7124   -3.1618 H   0  0  0  0  0  0  0  0  0  0  0  0
   -1.6657   14.1695   -2.0900 H   0  0  0  0  0  0  0  0  0  0  0  0
   -0.9799   13.1326   -3.4479 H   0  0  0  0  0  0  0  0  0  0  0  0
   -2.1249   11.8397   -1.4593 H   0  0  0  0  0  0  0  0  0  0  0  0
    1.6997   12.2913   -0.2483 H   0  0  0  0  0  0  0  0  0  0  0  0
    1.8519   10.1930   -2.4996 H   0  0  0  0  0  0  0  0  0  0  0  0
    3.2406   10.8587   -1.5299 H   0  0  0  0  0  0  0  0  0  0  0  0
    2.5658    8.6013   -0.7738 H   0  0  0  0  0  0  0  0  0  0  0  0
    2.3422    9.8687    0.4951 H   0  0  0  0  0  0  0  0  0  0  0  0
    0.4324    8.4186    0.5117 H   0  0  0  0  0  0  0  0  0  0  0  0
   -0.5820    7.8200   -1.3280 H   0  0  0  0  0  0  0  0  0  0  0  0
   -0.5372   10.0679    2.1316 H   0  0  0  0  0  0  0  0  0  0  0  0
    0.9356   10.9324    1.5748 H   0  0  0  0  0  0  0  0  0  0  0  0
   -0.6525   11.7718    1.5748 H   0  0  0  0  0  0  0  0  0  0  0  0
   -2.2430    9.6941    0.9681 H   0  0  0  0  0  0  0  0  0  0  0  0
   -2.5004   10.5552   -0.5872 H   0  0  0  0  0  0  0  0  0  0  0  0
   -1.9230    8.8542   -0.5872 H   0  0  0  0  0  0  0  0  0  0  0  0
    1.9471   11.3881   -3.6330 H   0  0  0  0  0  0  0  0  0  0  0  0
    0.8022   12.6457   -4.2111 H   0  0  0  0  0  0  0  0  0  0  0  0
    2.5688   12.9712   -4.2111 H   0  0  0  0  0  0  0  0  0  0  0  0
    3.6971   12.8827   -1.5282 H   0  0  0  0  0  0  0  0  0  0  0  0
    3.3720   14.1467   -2.8443 H   0  0  0  0  0  0  0  0  0  0  0  0
    2.8603   14.4031    0.1317 H   0  0  0  0  0  0  0  0  0  0  0  0
    4.0455   15.3059   -0.8915 H   0  0  0  0  0  0  0  0  0  0  0  0
    2.8794   17.4535   -2.4232 H   0  0  0  0  0  0  0  0  0  0  0  0
    2.9870   15.8112   -3.1430 H   0  0  0  0  0  0  0  0  0  0  0  0
    1.4209   16.6910   -3.1430 H   0  0  0  0  0  0  0  0  0  0  0  0
  1  2  1  0
  2  3  1  0
  3  4  1  0
  4  5  1  0
  5  6  1  0
  6  7  1  0
  7  8  1  0
  7  9  1  0
  2 10  1  0
 10 11  1  0
 11 12  1  0
 12 13  1  0
 13 14  1  1
 13 15  1  0
 15 16  1  0
 16 17  1  0
 17 18  2  0
 18 19  1  0
 19 20  1  0
 20 21  1  0
 21 22  1  0
 22 23  1  0
 22 24  1  0
 24 25  1  0
 24 26  1  0
 19 27  1  0
 27 28  1  6
 27 29  1  0
 29 30  1  0
 30 31  1  0
 31 32  1  6
  7  5  1  0
 31 10  1  0
 31 13  1  0
 27 15  1  0
 24 18  1  0
  1 33  1  0
  1 34  1  0
  1 35  1  0
  2 36  1  6
  3 37  1  0
  3 38  1  0
  4 39  1  0
  4 40  1  0
  5 41  1  1
  8 42  1  0
  8 43  1  0
  8 44  1  0
  9 45  1  0
  9 46  1  0
  9 47  1  0
 10 48  1  1
 11 49  1  0
 11 50  1  0
 12 51  1  0
 12 52  1  0
 14 53  1  0
 14 54  1  0
 14 55  1  0
 15 56  1  6
 16 57  1  0
 16 58  1  0
 17 59  1  0
 19 60  1  1
 20 61  1  0
 20 62  1  0
 21 63  1  0
 21 64  1  0
 22 65  1  1
 23 66  1  0
 25 67  1  0
 25 68  1  0
 25 69  1  0
 26 70  1  0
 26 71  1  0
 26 72  1  0
 28 73  1  0
 28 74  1  0
 28 75  1  0
 29 76  1  0
 29 77  1  0
 30 78  1  0
 30 79  1  0
 32 80  1  0
 32 81  1  0
 32 82  1  0
M  END
>  <meeko>  (2) 
{"is_sidechain": [false], "intermolecular_energy": 2.731, "internal_energy": -0.839}

$$$$
EPH_relaxed_0001_pdb2pqr_Repair_217_r2_0001_out
     RDKit          3D

 82 86  0  0  0  0  0  0  0  0999 V2000
    0.3850   18.4080   -0.0220 C   0  0  0  0  0  0  0  0  0  0  0  0
    1.4780   17.3580   -0.2430 C   0  0  2  0  0  0  0  0  0  0  0  0
    2.6870   17.9300   -1.0100 C   0  0  0  0  0  0  0  0  0  0  0  0
    3.9070   18.1970   -0.1250 C   0  0  0  0  0  0  0  0  0  0  0  0
    3.5090   18.6840    1.2360 C   0  0  2  0  0  0  0  0  0  0  0  0
    3.7810   20.0710    1.4790 O   0  0  0  0  0  0  0  0  0  0  0  0
    4.5050   19.1310    2.2890 C   0  0  0  0  0  0  0  0  0  0  0  0
    5.9780   19.1110    2.0280 C   0  0  0  0  0  0  0  0  0  0  0  0
    4.0810   19.1210    3.7250 C   0  0  0  0  0  0  0  0  0  0  0  0
    0.9040   16.1620   -0.9930 C   0  0  1  0  0  0  0  0  0  0  0  0
    0.7730   16.4190   -2.5180 C   0  0  0  0  0  0  0  0  0  0  0  0
    1.0630   15.0700   -3.2260 C   0  0  0  0  0  0  0  0  0  0  0  0
    1.0230   14.0180   -2.0920 C   0  0  1  0  0  0  0  0  0  0  0  0
   -0.4940   13.7220   -1.8740 C   0  0  0  0  0  0  0  0  0  0  0  0
    1.8380   12.7070   -2.3370 C   0  0  2  0  0  0  0  0  0  0  0  0
    1.3670   11.8600   -3.5330 C   0  0  0  0  0  0  0  0  0  0  0  0
    0.3370   10.8270   -3.2170 C   0  0  0  0  0  0  0  0  0  0  0  0
    0.0160   10.3940   -1.9840 C   0  0  0  0  0  0  0  0  0  0  0  0
    0.7880   10.8840   -0.7510 C   0  0  1  0  0  0  0  0  0  0  0  0
    1.1460    9.6730    0.1500 C   0  0  0  0  0  0  0  0  0  0  0  0
   -0.0760    8.8390    0.5210 C   0  0  0  0  0  0  0  0  0  0  0  0
   -0.7830    8.3220   -0.7290 C   0  0  2  0  0  0  0  0  0  0  0  0
    0.0740    7.3850   -1.3900 O   0  0  0  0  0  0  0  0  0  0  0  0
   -1.1840    9.4520   -1.7180 C   0  0  0  0  0  0  0  0  0  0  0  0
   -2.3360   10.2900   -1.1120 C   0  0  0  0  0  0  0  0  0  0  0  0
   -1.7580    8.7850   -2.9970 C   0  0  0  0  0  0  0  0  0  0  0  0
    2.0400   11.8180   -1.0440 C   0  0  1  0  0  0  0  0  0  0  0  0
    3.3070   10.9460   -1.2970 C   0  0  0  0  0  0  0  0  0  0  0  0
    2.3450   12.6840    0.2350 C   0  0  0  0  0  0  0  0  0  0  0  0
    1.5970   14.0250    0.3610 C   0  0  0  0  0  0  0  0  0  0  0  0
    1.7030   14.8360   -0.9350 C   0  0  2  0  0  0  0  0  0  0  0  0
    3.2170   15.1680   -1.1690 C   0  0  0  0  0  0  0  0  0  0  0  0
    0.2313   18.5557    1.0571 H   0  0  0  0  0  0  0  0  0  0  0  0
    0.6916   19.3589   -0.4822 H   0  0  0  0  0  0  0  0  0  0  0  0
   -0.5528   18.0635   -0.4822 H   0  0  0  0  0  0  0  0  0  0  0  0
    1.8365   17.0398    0.7470 H   0  0  0  0  0  0  0  0  0  0  0  0
    2.9750   17.2105   -1.7906 H   0  0  0  0  0  0  0  0  0  0  0  0
    2.3741   18.8987   -1.4268 H   0  0  0  0  0  0  0  0  0  0  0  0
    4.4796   17.2641   -0.0164 H   0  0  0  0  0  0  0  0  0  0  0  0
    4.5142   18.9787   -0.6049 H   0  0  0  0  0  0  0  0  0  0  0  0
    2.6683   17.9754    1.2693 H   0  0  0  0  0  0  0  0  0  0  0  0
    6.5199   19.1036    2.9852 H   0  0  0  0  0  0  0  0  0  0  0  0
    6.2364   18.2093    1.4534 H   0  0  0  0  0  0  0  0  0  0  0  0
    6.2608   20.0054    1.4534 H   0  0  0  0  0  0  0  0  0  0  0  0
    4.9715   19.1420    4.3704 H   0  0  0  0  0  0  0  0  0  0  0  0
    3.4588   20.0047    3.9298 H   0  0  0  0  0  0  0  0  0  0  0  0
    3.5012   18.2089    3.9298 H   0  0  0  0  0  0  0  0  0  0  0  0
   -0.0505   16.0504   -0.4578 H   0  0  0  0  0  0  0  0  0  0  0  0
   -0.2442   16.7618   -2.7583 H   0  0  0  0  0  0  0  0  0  0  0  0
    1.4759   17.1977   -2.8490 H   0  0  0  0  0  0  0  0  0  0  0  0
    0.2938   14.8551   -3.9824 H   0  0  0  0  0  0  0  0  0  0  0  0
    2.0268   15.0757   -3.7562 H   0  0  0  0  0  0  0  0  0  0  0  0
   -0.7082   13.6802   -0.7959 H   0  0  0  0  0  0  0  0  0  0  0  0
   -1.0934   14.5201   -2.3363 H   0  0  0  0  0  0  0  0  0  0  0  0
   -0.7494   12.7571   -2.3363 H   0  0  0  0  0  0  0  0  0  0  0  0
    2.8290   13.0942   -2.6161 H   0  0  0  0  0  0  0  0  0  0  0  0
    0.9450   12.5412   -4.2866 H   0  0  0  0  0  0  0  0  0  0  0  0
    2.2525   11.3093   -3.8831 H   0  0  0  0  0  0  0  0  0  0  0  0
   -0.2058   10.3819   -4.0639 H   0  0  0  0  0  0  0  0  0  0  0  0
    0.1070   11.5604   -0.2137 H   0  0  0  0  0  0  0  0  0  0  0  0
    1.8603    9.0322   -0.3878 H   0  0  0  0  0  0  0  0  0  0  0  0
    1.5776   10.0663    1.0822 H   0  0  0  0  0  0  0  0  0  0  0  0
    0.2445    7.9832    1.1333 H   0  0  0  0  0  0  0  0  0  0  0  0
   -0.7766    9.4734    1.0838 H   0  0  0  0  0  0  0  0  0  0  0  0
   -1.7186    7.8434   -0.4042 H   0  0  0  0  0  0  0  0  0  0  0  0
   -0.0660    6.5160   -0.9770 H   0  0  0  0  0  0  0  0  0  0  0  0
   -2.2806   10.2497   -0.0141 H   0  0  0  0  0  0  0  0  0  0  0  0
   -2.2447   11.3342   -1.4456 H   0  0  0  0  0  0  0  0  0  0  0  0
   -3.3013    9.8816   -1.4456 H   0  0  0  0  0  0  0  0  0  0  0  0
   -2.4509    7.9799   -2.7112 H   0  0  0  0  0  0  0  0  0  0  0  0
   -2.2957    9.5371   -3.5930 H   0  0  0  0  0  0  0  0  0  0  0  0
   -0.9341    8.3654   -3.5930 H   0  0  0  0  0  0  0  0  0  0  0  0
    3.7437   10.6454   -0.3332 H   0  0  0  0  0  0  0  0  0  0  0  0
    3.0265   10.0487   -1.8682 H   0  0  0  0  0  0  0  0  0  0  0  0
    4.0449   11.5284   -1.8682 H   0  0  0  0  0  0  0  0  0  0  0  0
    2.0904   12.0769    1.1163 H   0  0  0  0  0  0  0  0  0  0  0  0
    3.4081   12.9543    0.1526 H   0  0  0  0  0  0  0  0  0  0  0  0
    0.5365   13.8267    0.5757 H   0  0  0  0  0  0  0  0  0  0  0  0
    2.0529   14.6057    1.1765 H   0  0  0  0  0  0  0  0  0  0  0  0
    3.7224   15.2788   -0.1983 H   0  0  0  0  0  0  0  0  0  0  0  0
    3.6879   14.3518   -1.7365 H   0  0  0  0  0  0  0  0  0  0  0  0
    3.3032   16.1064   -1.7365 H   0  0  0  0  0  0  0  0  0  0  0  0
  1  2  1  0
  2  3  1  0
  3  4  1  0
  4  5  1  0
  5  6  1  0
  6  7  1  0
  7  8  1  0
  7  9  1  0
  2 10  1  0
 10 11  1  0
 11 12  1  0
 12 13  1  0
 13 14  1  1
 13 15  1  0
 15 16  1  0
 16 17  1  0
 17 18  2  0
 18 19  1  0
 19 20  1  0
 20 21  1  0
 21 22  1  0
 22 23  1  0
 22 24  1  0
 24 25  1  0
 24 26  1  0
 19 27  1  0
 27 28  1  6
 27 29  1  0
 29 30  1  0
 30 31  1  0
 31 32  1  6
  7  5  1  0
 31 10  1  0
 31 13  1  0
 27 15  1  0
 24 18  1  0
  1 33  1  0
  1 34  1  0
  1 35  1  0
  2 36  1  1
  3 37  1  0
  3 38  1  0
  4 39  1  0
  4 40  1  0
  5 41  1  1
  8 42  1  0
  8 43  1  0
  8 44  1  0
  9 45  1  0
  9 46  1  0
  9 47  1  0
 10 48  1  1
 11 49  1  0
 11 50  1  0
 12 51  1  0
 12 52  1  0
 14 53  1  0
 14 54  1  0
 14 55  1  0
 15 56  1  6
 16 57  1  0
 16 58  1  0
 17 59  1  0
 19 60  1  1
 20 61  1  0
 20 62  1  0
 21 63  1  0
 21 64  1  0
 22 65  1  1
 23 66  1  0
 25 67  1  0
 25 68  1  0
 25 69  1  0
 26 70  1  0
 26 71  1  0
 26 72  1  0
 28 73  1  0
 28 74  1  0
 28 75  1  0
 29 76  1  0
 29 77  1  0
 30 78  1  0
 30 79  1  0
 32 80  1  0
 32 81  1  0
 32 82  1  0
M  END
>  <meeko>  (3) 
{"is_sidechain": [false], "intermolecular_energy": 2.731, "internal_energy": -0.839}

$$$$
EPH_relaxed_0001_pdb2pqr_Repair_217_r2_0001_out
     RDKit          3D

 82 86  0  0  0  0  0  0  0  0999 V2000
    2.3710   17.9530   -2.7890 C   0  0  0  0  0  0  0  0  0  0  0  0
    1.0610   17.5980   -2.0790 C   0  0  2  0  0  0  0  0  0  0  0  0
    1.1900   17.6850   -0.5450 C   0  0  0  0  0  0  0  0  0  0  0  0
    0.8570   19.0670    0.0230 C   0  0  0  0  0  0  0  0  0  0  0  0
   -0.5880   19.1760    0.4050 C   0  0  2  0  0  0  0  0  0  0  0  0
   -1.4570   18.2590   -0.2730 O   0  0  0  0  0  0  0  0  0  0  0  0
   -1.6710   19.6530   -0.5460 C   0  0  0  0  0  0  0  0  0  0  0  0
   -1.3530   20.0540   -1.9520 C   0  0  0  0  0  0  0  0  0  0  0  0
   -2.9420   20.1930    0.0310 C   0  0  0  0  0  0  0  0  0  0  0  0
    0.6120   16.2000   -2.4860 C   0  0  1  0  0  0  0  0  0  0  0  0
    0.7130   15.9610   -4.0160 C   0  0  0  0  0  0  0  0  0  0  0  0
    1.1110   14.4760   -4.2120 C   0  0  0  0  0  0  0  0  0  0  0  0
    0.9030   13.8300   -2.8230 C   0  0  1  0  0  0  0  0  0  0  0  0
   -0.6280   13.5390   -2.7410 C   0  0  0  0  0  0  0  0  0  0  0  0
    1.7500   12.5510   -2.5220 C   0  0  2  0  0  0  0  0  0  0  0  0
    1.4690   11.3500   -3.4420 C   0  0  0  0  0  0  0  0  0  0  0  0
    0.4060   10.4160   -2.9660 C   0  0  0  0  0  0  0  0  0  0  0  0
   -0.0960   10.3740   -1.7180 C   0  0  0  0  0  0  0  0  0  0  0  0
    0.4790   11.2620   -0.6070 C   0  0  1  0  0  0  0  0  0  0  0  0
    0.7000   10.4140    0.6720 C   0  0  0  0  0  0  0  0  0  0  0  0
   -0.5610    9.6750    1.1100 C   0  0  0  0  0  0  0  0  0  0  0  0
   -1.0690    8.7580   -0.0000 C   0  0  2  0  0  0  0  0  0  0  0  0
   -0.1180    7.7080   -0.2020 O   0  0  0  0  0  0  0  0  0  0  0  0
   -1.3180    9.5010   -1.3430 C   0  0  0  0  0  0  0  0  0  0  0  0
   -2.5520   10.4270   -1.2030 C   0  0  0  0  0  0  0  0  0  0  0  0
   -1.6910    8.4400   -2.4130 C   0  0  0  0  0  0  0  0  0  0  0  0
    1.7580   12.1220   -0.9990 C   0  0  1  0  0  0  0  0  0  0  0  0
    3.0520   11.2800   -0.7790 C   0  0  0  0  0  0  0  0  0  0  0  0
    1.8620   13.3580   -0.0290 C   0  0  0  0  0  0  0  0  0  0  0  0
    1.1000   14.6310   -0.4420 C   0  0  0  0  0  0  0  0  0  0  0  0
    1.3980   15.0010   -1.8980 C   0  0  2  0  0  0  0  0  0  0  0  0
    2.9280   15.3210   -2.0070 C   0  0  0  0  0  0  0  0  0  0  0  0
    3.1486   18.1637   -2.0400 H   0  0  0  0  0  0  0  0  0  0  0  0
    2.6875   17.1082   -3.4184 H   0  0  0  0  0  0  0  0  0  0  0  0
    2.2177   18.8420   -3.4184 H   0  0  0  0  0  0  0  0  0  0  0  0
    0.3060   18.3356   -2.3887 H   0  0  0  0  0  0  0  0  0  0  0  0
    0.5045   16.9508   -0.0966 H   0  0  0  0  0  0  0  0  0  0  0  0
    2.2426   17.4813   -0.2988 H   0  0  0  0  0  0  0  0  0  0  0  0
    1.4758   19.2444    0.9150 H   0  0  0  0  0  0  0  0  0  0  0  0
    1.0633   19.8164   -0.7554 H   0  0  0  0  0  0  0  0  0  0  0  0
   -0.3195   19.4769    1.4284 H   0  0  0  0  0  0  0  0  0  0  0  0
   -0.6695   20.9158   -1.9418 H   0  0  0  0  0  0  0  0  0  0  0  0
   -0.8741   19.2124   -2.4739 H   0  0  0  0  0  0  0  0  0  0  0  0
   -2.2816   20.3285   -2.4739 H   0  0  0  0  0  0  0  0  0  0  0  0
   -2.8854   20.1689    1.1293 H   0  0  0  0  0  0  0  0  0  0  0  0
   -3.0862   21.2301   -0.3061 H   0  0  0  0  0  0  0  0  0  0  0  0
   -3.7886   19.5768   -0.3061 H   0  0  0  0  0  0  0  0  0  0  0  0
   -0.4123   16.2121   -2.0851 H   0  0  0  0  0  0  0  0  0  0  0  0
   -0.2571   16.1595   -4.4951 H   0  0  0  0  0  0  0  0  0  0  0  0
    1.4556   16.6321   -4.4721 H   0  0  0  0  0  0  0  0  0  0  0  0
    0.4661   13.9971   -4.9635 H   0  0  0  0  0  0  0  0  0  0  0  0
    2.1441   14.3652   -4.5732 H   0  0  0  0  0  0  0  0  0  0  0  0
   -0.9342   13.4808   -1.6861 H   0  0  0  0  0  0  0  0  0  0  0  0
   -1.1822   14.3479   -3.2396 H   0  0  0  0  0  0  0  0  0  0  0  0
   -0.8468   12.5832   -3.2396 H   0  0  0  0  0  0  0  0  0  0  0  0
    2.7702   12.8821   -2.7661 H   0  0  0  0  0  0  0  0  0  0  0  0
    1.1643   11.7389   -4.4248 H   0  0  0  0  0  0  0  0  0  0  0  0
    2.3992   10.7635   -3.4688 H   0  0  0  0  0  0  0  0  0  0  0  0
   -0.0012    9.7020   -3.6970 H   0  0  0  0  0  0  0  0  0  0  0  0
   -0.2781   12.0363   -0.4141 H   0  0  0  0  0  0  0  0  0  0  0  0
    1.4903    9.6752    0.4729 H   0  0  0  0  0  0  0  0  0  0  0  0
    0.9827   11.1011    1.4831 H   0  0  0  0  0  0  0  0  0  0  0  0
   -0.3332    9.0705    2.0003 H   0  0  0  0  0  0  0  0  0  0  0  0
   -1.3412   10.4162    1.3379 H   0  0  0  0  0  0  0  0  0  0  0  0
   -2.0414    8.3576    0.3227 H   0  0  0  0  0  0  0  0  0  0  0  0
    0.7530    8.0430    0.0710 H   0  0  0  0  0  0  0  0  0  0  0  0
   -2.7691   10.5899   -0.1370 H   0  0  0  0  0  0  0  0  0  0  0  0
   -2.3425   11.3927   -1.6863 H   0  0  0  0  0  0  0  0  0  0  0  0
   -3.4206    9.9559   -1.6863 H   0  0  0  0  0  0  0  0  0  0  0  0
   -2.0162    7.5150   -1.9144 H   0  0  0  0  0  0  0  0  0  0  0  0
   -2.5079    8.8245   -3.0414 H   0  0  0  0  0  0  0  0  0  0  0  0
   -0.8133    8.2287   -3.0414 H   0  0  0  0  0  0  0  0  0  0  0  0
    3.2336   11.1618    0.2994 H   0  0  0  0  0  0  0  0  0  0  0  0
    2.9277   10.2893   -1.2406 H   0  0  0  0  0  0  0  0  0  0  0  0
    3.9074   11.7949   -1.2406 H   0  0  0  0  0  0  0  0  0  0  0  0
    1.4777   13.0439    0.9526 H   0  0  0  0  0  0  0  0  0  0  0  0
    2.9245   13.6427   -0.0386 H   0  0  0  0  0  0  0  0  0  0  0  0
    0.0199   14.4562   -0.3291 H   0  0  0  0  0  0  0  0  0  0  0  0
    1.4259   15.4596    0.2039 H   0  0  0  0  0  0  0  0  0  0  0  0
    3.3566   15.4107   -0.9979 H   0  0  0  0  0  0  0  0  0  0  0  0
    3.4346   14.5094   -2.5498 H   0  0  0  0  0  0  0  0  0  0  0  0
    3.0669   16.2676   -2.5498 H   0  0  0  0  0  0  0  0  0  0  0  0
  1  2  1  0
  2  3  1  0
  3  4  1  0
  4  5  1  0
  5  6  1  0
  6  7  1  0
  7  8  1  0
  7  9  1  0
  2 10  1  0
 10 11  1  0
 11 12  1  0
 12 13  1  0
 13 14  1  1
 13 15  1  0
 15 16  1  0
 16 17  1  0
 17 18  2  0
 18 19  1  0
 19 20  1  0
 20 21  1  0
 21 22  1  0
 22 23  1  0
 22 24  1  0
 24 25  1  0
 24 26  1  0
 19 27  1  0
 27 28  1  6
 27 29  1  0
 29 30  1  0
 30 31  1  0
 31 32  1  1
  7  5  1  0
 31 10  1  0
 31 13  1  0
 27 15  1  0
 24 18  1  0
  1 33  1  0
  1 34  1  0
  1 35  1  0
  2 36  1  6
  3 37  1  0
  3 38  1  0
  4 39  1  0
  4 40  1  0
  5 41  1  1
  8 42  1  0
  8 43  1  0
  8 44  1  0
  9 45  1  0
  9 46  1  0
  9 47  1  0
 10 48  1  1
 11 49  1  0
 11 50  1  0
 12 51  1  0
 12 52  1  0
 14 53  1  0
 14 54  1  0
 14 55  1  0
 15 56  1  6
 16 57  1  0
 16 58  1  0
 17 59  1  0
 19 60  1  1
 20 61  1  0
 20 62  1  0
 21 63  1  0
 21 64  1  0
 22 65  1  1
 23 66  1  0
 25 67  1  0
 25 68  1  0
 25 69  1  0
 26 70  1  0
 26 71  1  0
 26 72  1  0
 28 73  1  0
 28 74  1  0
 28 75  1  0
 29 76  1  0
 29 77  1  0
 30 78  1  0
 30 79  1  0
 32 80  1  0
 32 81  1  0
 32 82  1  0
M  END
>  <meeko>  (4) 
{"is_sidechain": [false], "intermolecular_energy": 2.731, "internal_energy": -0.839}

$$$$
EPH_relaxed_0001_pdb2pqr_Repair_217_r2_0001_out
     RDKit          3D

 82 86  0  0  0  0  0  0  0  0999 V2000
   -5.1590    5.8560   -1.6780 C   0  0  0  0  0  0  0  0  0  0  0  0
   -5.4470    7.3570   -1.7780 C   0  0  2  0  0  0  0  0  0  0  0  0
   -5.2090    8.0840   -0.4390 C   0  0  0  0  0  0  0  0  0  0  0  0
   -4.1570    9.1930   -0.5190 C   0  0  0  0  0  0  0  0  0  0  0  0
   -2.7990    8.6460   -0.8440 C   0  0  2  0  0  0  0  0  0  0  0  0
   -1.7900    8.9310    0.1340 O   0  0  0  0  0  0  0  0  0  0  0  0
   -1.6000    9.5200   -1.1630 C   0  0  0  0  0  0  0  0  0  0  0  0
   -1.7030   11.0130   -1.1740 C   0  0  0  0  0  0  0  0  0  0  0  0
   -0.4660    8.9230   -1.9360 C   0  0  0  0  0  0  0  0  0  0  0  0
   -6.8800    7.5810   -2.2450 C   0  0  1  0  0  0  0  0  0  0  0  0
   -7.1820    6.8890   -3.6010 C   0  0  0  0  0  0  0  0  0  0  0  0
   -8.6560    6.4120   -3.5410 C   0  0  0  0  0  0  0  0  0  0  0  0
   -9.2480    7.1280   -2.3050 C   0  0  1  0  0  0  0  0  0  0  0  0
   -9.6010    8.5640   -2.8050 C   0  0  0  0  0  0  0  0  0  0  0  0
  -10.4750    6.4360   -1.6260 C   0  0  2  0  0  0  0  0  0  0  0  0
  -11.7260    6.3090   -2.5130 C   0  0  0  0  0  0  0  0  0  0  0  0
  -12.6830    7.4520   -2.4310 C   0  0  0  0  0  0  0  0  0  0  0  0
  -12.6920    8.3990   -1.4740 C   0  0  0  0  0  0  0  0  0  0  0  0
  -11.7300    8.3210   -0.2810 C   0  0  1  0  0  0  0  0  0  0  0  0
  -12.5110    8.5940    1.0310 C   0  0  0  0  0  0  0  0  0  0  0  0
  -13.2830    9.9090    0.9890 C   0  0  0  0  0  0  0  0  0  0  0  0
  -14.2700    9.9250   -0.1760 C   0  0  2  0  0  0  0  0  0  0  0  0
  -15.2860    8.9470    0.0680 O   0  0  0  0  0  0  0  0  0  0  0  0
  -13.5990    9.6510   -1.5500 C   0  0  0  0  0  0  0  0  0  0  0  0
  -12.7220   10.8630   -1.9530 C   0  0  0  0  0  0  0  0  0  0  0  0
  -14.7220    9.5540   -2.6190 C   0  0  0  0  0  0  0  0  0  0  0  0
  -10.8350    7.0110   -0.1970 C   0  0  1  0  0  0  0  0  0  0  0  0
  -11.6090    5.8840    0.5540 C   0  0  0  0  0  0  0  0  0  0  0  0
   -9.5530    7.3190    0.6650 C   0  0  0  0  0  0  0  0  0  0  0  0
   -8.3340    7.8900   -0.0840 C   0  0  0  0  0  0  0  0  0  0  0  0
   -8.0160    7.0580   -1.3300 C   0  0  2  0  0  0  0  0  0  0  0  0
   -7.6360    5.6140   -0.8580 C   0  0  0  0  0  0  0  0  0  0  0  0
   -5.1028    5.5632   -0.6192 H   0  0  0  0  0  0  0  0  0  0  0  0
   -5.9657    5.2942   -2.1715 H   0  0  0  0  0  0  0  0  0  0  0  0
   -4.2016    5.6327   -2.1715 H   0  0  0  0  0  0  0  0  0  0  0  0
   -4.7463    7.7806   -2.5126 H   0  0  0  0  0  0  0  0  0  0  0  0
   -6.1599    8.5303   -0.1125 H   0  0  0  0  0  0  0  0  0  0  0  0
   -4.8315    7.3337    0.2713 H   0  0  0  0  0  0  0  0  0  0  0  0
   -4.4506    9.9072   -1.3024 H   0  0  0  0  0  0  0  0  0  0  0  0
   -4.1025    9.6858    0.4629 H   0  0  0  0  0  0  0  0  0  0  0  0
   -3.2436    7.7849   -1.3644 H   0  0  0  0  0  0  0  0  0  0  0  0
   -1.7288   11.3864   -0.1396 H   0  0  0  0  0  0  0  0  0  0  0  0
   -0.8320   11.4368   -1.6952 H   0  0  0  0  0  0  0  0  0  0  0  0
   -2.6240   11.3132   -1.6952 H   0  0  0  0  0  0  0  0  0  0  0  0
    0.2858    8.5272   -1.2373 H   0  0  0  0  0  0  0  0  0  0  0  0
   -0.8436    8.1068   -2.5694 H   0  0  0  0  0  0  0  0  0  0  0  0
   -0.0068    9.6962   -2.5694 H   0  0  0  0  0  0  0  0  0  0  0  0
   -6.8951    8.6806   -2.2725 H   0  0  0  0  0  0  0  0  0  0  0  0
   -7.0478    7.6016   -4.4282 H   0  0  0  0  0  0  0  0  0  0  0  0
   -6.4999    6.0435   -3.7736 H   0  0  0  0  0  0  0  0  0  0  0  0
   -9.1958    6.7033   -4.4541 H   0  0  0  0  0  0  0  0  0  0  0  0
   -8.7375    5.3175   -3.4677 H   0  0  0  0  0  0  0  0  0  0  0  0
   -9.7632    9.2239   -1.9400 H   0  0  0  0  0  0  0  0  0  0  0  0
   -8.7721    8.9544   -3.4137 H   0  0  0  0  0  0  0  0  0  0  0  0
  -10.5164    8.5256   -3.4137 H   0  0  0  0  0  0  0  0  0  0  0  0
  -10.1117    5.4090   -1.4737 H   0  0  0  0  0  0  0  0  0  0  0  0
  -11.3943    6.2174   -3.5578 H   0  0  0  0  0  0  0  0  0  0  0  0
  -12.2718    5.4274   -2.1459 H   0  0  0  0  0  0  0  0  0  0  0  0
  -13.4459    7.5268   -3.2199 H   0  0  0  0  0  0  0  0  0  0  0  0
  -10.9810    9.1105   -0.4412 H   0  0  0  0  0  0  0  0  0  0  0  0
  -13.2233    7.7720    1.1950 H   0  0  0  0  0  0  0  0  0  0  0  0
  -11.7777    8.6631    1.8480 H   0  0  0  0  0  0  0  0  0  0  0  0
  -13.8366   10.0318    1.9316 H   0  0  0  0  0  0  0  0  0  0  0  0
  -12.5666   10.7327    0.8538 H   0  0  0  0  0  0  0  0  0  0  0  0
  -14.6983   10.9366   -0.2329 H   0  0  0  0  0  0  0  0  0  0  0  0
  -15.4170    8.4480   -0.7560 H   0  0  0  0  0  0  0  0  0  0  0  0
  -12.3563   11.3684   -1.0470 H   0  0  0  0  0  0  0  0  0  0  0  0
  -11.8659   10.5140   -2.5491 H   0  0  0  0  0  0  0  0  0  0  0  0
  -13.3212   11.5671   -2.5491 H   0  0  0  0  0  0  0  0  0  0  0  0
  -15.6981    9.4697   -2.1188 H   0  0  0  0  0  0  0  0  0  0  0  0
  -14.7088   10.4566   -3.2476 H   0  0  0  0  0  0  0  0  0  0  0  0
  -14.5543    8.6670   -3.2476 H   0  0  0  0  0  0  0  0  0  0  0  0
  -11.5083    6.0307    1.6395 H   0  0  0  0  0  0  0  0  0  0  0  0
  -12.6726    5.9218    0.2760 H   0  0  0  0  0  0  0  0  0  0  0  0
  -11.1919    4.9048    0.2760 H   0  0  0  0  0  0  0  0  0  0  0  0
   -9.8390    8.0466    1.4388 H   0  0  0  0  0  0  0  0  0  0  0  0
   -9.2233    6.3428    1.0500 H   0  0  0  0  0  0  0  0  0  0  0  0
   -8.5510    8.9246   -0.3881 H   0  0  0  0  0  0  0  0  0  0  0  0
   -7.4641    7.8603    0.5886 H   0  0  0  0  0  0  0  0  0  0  0  0
   -7.6266    5.5782    0.2414 H   0  0  0  0  0  0  0  0  0  0  0  0
   -8.3758    4.8962   -1.2419 H   0  0  0  0  0  0  0  0  0  0  0  0
   -6.6387    5.3533   -1.2419 H   0  0  0  0  0  0  0  0  0  0  0  0
  1  2  1  0
  2  3  1  0
  3  4  1  0
  4  5  1  0
  5  6  1  0
  6  7  1  0
  7  8  1  0
  7  9  1  0
  2 10  1  0
 10 11  1  0
 11 12  1  0
 12 13  1  0
 13 14  1  6
 13 15  1  0
 15 16  1  0
 16 17  1  0
 17 18  2  0
 18 19  1  0
 19 20  1  0
 20 21  1  0
 21 22  1  0
 22 23  1  0
 22 24  1  0
 24 25  1  0
 24 26  1  0
 19 27  1  0
 27 28  1  1
 27 29  1  0
 29 30  1  0
 30 31  1  0
 31 32  1  1
  7  5  1  0
 31 10  1  0
 31 13  1  0
 27 15  1  0
 24 18  1  0
  1 33  1  0
  1 34  1  0
  1 35  1  0
  2 36  1  6
  3 37  1  0
  3 38  1  0
  4 39  1  0
  4 40  1  0
  5 41  1  6
  8 42  1  0
  8 43  1  0
  8 44  1  0
  9 45  1  0
  9 46  1  0
  9 47  1  0
 10 48  1  6
 11 49  1  0
 11 50  1  0
 12 51  1  0
 12 52  1  0
 14 53  1  0
 14 54  1  0
 14 55  1  0
 15 56  1  1
 16 57  1  0
 16 58  1  0
 17 59  1  0
 19 60  1  6
 20 61  1  0
 20 62  1  0
 21 63  1  0
 21 64  1  0
 22 65  1  6
 23 66  1  0
 25 67  1  0
 25 68  1  0
 25 69  1  0
 26 70  1  0
 26 71  1  0
 26 72  1  0
 28 73  1  0
 28 74  1  0
 28 75  1  0
 29 76  1  0
 29 77  1  0
 30 78  1  0
 30 79  1  0
 32 80  1  0
 32 81  1  0
 32 82  1  0
M  END
>  <meeko>  (5) 
{"is_sidechain": [false], "intermolecular_energy": 2.731, "internal_energy": -0.839}

$$$$
EPH_relaxed_0001_pdb2pqr_Repair_217_r2_0001_out
     RDKit          3D

 82 86  0  0  0  0  0  0  0  0999 V2000
    0.3760    8.8870   -2.5920 C   0  0  0  0  0  0  0  0  0  0  0  0
    1.1480   10.0530   -3.2180 C   0  0  2  0  0  0  0  0  0  0  0  0
    2.6390   10.0390   -2.8260 C   0  0  0  0  0  0  0  0  0  0  0  0
    3.5610   10.6350   -3.8930 C   0  0  0  0  0  0  0  0  0  0  0  0
    4.9500   10.8440   -3.3710 C   0  0  2  0  0  0  0  0  0  0  0  0
    5.5810   12.0530   -3.8150 O   0  0  0  0  0  0  0  0  0  0  0  0
    6.1860   10.8240   -4.2510 C   0  0  0  0  0  0  0  0  0  0  0  0
    6.0910   10.5880   -5.7250 C   0  0  0  0  0  0  0  0  0  0  0  0
    7.5130   10.5470   -3.6140 C   0  0  0  0  0  0  0  0  0  0  0  0
    0.5130   11.3760   -2.8080 C   0  0  1  0  0  0  0  0  0  0  0  0
   -0.8560   11.1880   -2.1010 C   0  0  0  0  0  0  0  0  0  0  0  0
   -0.9600   12.3000   -1.0240 C   0  0  0  0  0  0  0  0  0  0  0  0
    0.1860   13.2810   -1.3660 C   0  0  1  0  0  0  0  0  0  0  0  0
   -0.3770   14.1700   -2.5180 C   0  0  0  0  0  0  0  0  0  0  0  0
    0.7300   14.1460   -0.1820 C   0  0  2  0  0  0  0  0  0  0  0  0
   -0.2940   15.1070    0.4480 C   0  0  0  0  0  0  0  0  0  0  0  0
   -0.3450   16.4710   -0.1560 C   0  0  0  0  0  0  0  0  0  0  0  0
    0.5870   17.0020   -0.9690 C   0  0  0  0  0  0  0  0  0  0  0  0
    1.8850   16.2450   -1.2790 C   0  0  1  0  0  0  0  0  0  0  0  0
    3.0930   17.2080   -1.1370 C   0  0  0  0  0  0  0  0  0  0  0  0
    2.9370   18.4700   -1.9810 C   0  0  0  0  0  0  0  0  0  0  0  0
    1.6650   19.2250   -1.6040 C   0  0  2  0  0  0  0  0  0  0  0  0
    1.8070   19.7280   -0.2720 O   0  0  0  0  0  0  0  0  0  0  0  0
    0.3830   18.3520   -1.6990 C   0  0  0  0  0  0  0  0  0  0  0  0
    0.0640   18.0570   -3.1860 C   0  0  0  0  0  0  0  0  0  0  0  0
   -0.8060   19.1900   -1.1570 C   0  0  0  0  0  0  0  0  0  0  0  0
    2.0970   14.8810   -0.4910 C   0  0  1  0  0  0  0  0  0  0  0  0
    2.7730   15.1610    0.8860 C   0  0  0  0  0  0  0  0  0  0  0  0
    3.0960   13.9700   -1.3000 C   0  0  0  0  0  0  0  0  0  0  0  0
    2.4840   13.0500   -2.3730 C   0  0  0  0  0  0  0  0  0  0  0  0
    1.2980   12.2620   -1.8080 C   0  0  2  0  0  0  0  0  0  0  0  0
    1.8380   11.3420   -0.6610 C   0  0  0  0  0  0  0  0  0  0  0  0
    0.4252    8.9613   -1.4956 H   0  0  0  0  0  0  0  0  0  0  0  0
   -0.6746    8.9271   -2.9155 H   0  0  0  0  0  0  0  0  0  0  0  0
    0.8232    7.9355   -2.9155 H   0  0  0  0  0  0  0  0  0  0  0  0
    1.0935    9.9379   -4.3106 H   0  0  0  0  0  0  0  0  0  0  0  0
    2.7599   10.6189   -1.8991 H   0  0  0  0  0  0  0  0  0  0  0  0
    2.9292    8.9852   -2.7023 H   0  0  0  0  0  0  0  0  0  0  0  0
    3.6024    9.9490   -4.7519 H   0  0  0  0  0  0  0  0  0  0  0  0
    3.1551   11.6135   -4.1893 H   0  0  0  0  0  0  0  0  0  0  0  0
    4.7023   10.3220   -2.4350 H   0  0  0  0  0  0  0  0  0  0  0  0
    5.6861    9.5821   -5.9099 H   0  0  0  0  0  0  0  0  0  0  0  0
    5.4254   11.3396   -6.1745 H   0  0  0  0  0  0  0  0  0  0  0  0
    7.0917   10.6688   -6.1745 H   0  0  0  0  0  0  0  0  0  0  0  0
    7.4061   10.5693   -2.5194 H   0  0  0  0  0  0  0  0  0  0  0  0
    7.8702    9.5549   -3.9274 H   0  0  0  0  0  0  0  0  0  0  0  0
    8.2373   11.3133   -3.9274 H   0  0  0  0  0  0  0  0  0  0  0  0
    0.4642   11.8691   -3.7901 H   0  0  0  0  0  0  0  0  0  0  0  0
   -1.6749   11.2876   -2.8286 H   0  0  0  0  0  0  0  0  0  0  0  0
   -0.9318   10.1893   -1.6462 H   0  0  0  0  0  0  0  0  0  0  0  0
   -1.9349   12.8063   -1.0811 H   0  0  0  0  0  0  0  0  0  0  0  0
   -0.8772   11.9009   -0.0023 H   0  0  0  0  0  0  0  0  0  0  0  0
   -0.9190   15.0258   -2.0893 H   0  0  0  0  0  0  0  0  0  0  0  0
    0.4543   14.5360   -3.1384 H   0  0  0  0  0  0  0  0  0  0  0  0
   -1.0632   13.5749   -3.1384 H   0  0  0  0  0  0  0  0  0  0  0  0
    0.9413   13.3878    0.5864 H   0  0  0  0  0  0  0  0  0  0  0  0
   -1.2913   14.6538    0.3483 H   0  0  0  0  0  0  0  0  0  0  0  0
    0.0238   15.2484    1.4915 H   0  0  0  0  0  0  0  0  0  0  0  0
   -1.2184   17.0952    0.0837 H   0  0  0  0  0  0  0  0  0  0  0  0
    1.7978   15.9067   -2.3221 H   0  0  0  0  0  0  0  0  0  0  0  0
    3.1893   17.4997   -0.0808 H   0  0  0  0  0  0  0  0  0  0  0  0
    3.9878   16.6764   -1.4930 H   0  0  0  0  0  0  0  0  0  0  0  0
    3.8061   19.1236   -1.8152 H   0  0  0  0  0  0  0  0  0  0  0  0
    2.8713   18.1784   -3.0396 H   0  0  0  0  0  0  0  0  0  0  0  0
    1.5401   20.0440   -2.3276 H   0  0  0  0  0  0  0  0  0  0  0  0
    1.2930   19.1500    0.3180 H   0  0  0  0  0  0  0  0  0  0  0  0
   -0.7424   17.3113   -3.2471 H   0  0  0  0  0  0  0  0  0  0  0  0
   -0.2559   18.9845   -3.6834 H   0  0  0  0  0  0  0  0  0  0  0  0
    0.9637   17.6657   -3.6834 H   0  0  0  0  0  0  0  0  0  0  0  0
   -0.7909   19.1793   -0.0572 H   0  0  0  0  0  0  0  0  0  0  0  0
   -0.7174   20.2264   -1.5149 H   0  0  0  0  0  0  0  0  0  0  0  0
   -1.7522   18.7581   -1.5149 H   0  0  0  0  0  0  0  0  0  0  0  0
    2.0858   14.8764    1.6964 H   0  0  0  0  0  0  0  0  0  0  0  0
    3.6987   14.5723    0.9665 H   0  0  0  0  0  0  0  0  0  0  0  0
    3.0113   16.2319    0.9665 H   0  0  0  0  0  0  0  0  0  0  0  0
    3.8179   14.6314   -1.8013 H   0  0  0  0  0  0  0  0  0  0  0  0
    3.5339   13.2904   -0.5541 H   0  0  0  0  0  0  0  0  0  0  0  0
    2.1386   13.6633   -3.2183 H   0  0  0  0  0  0  0  0  0  0  0  0
    3.2534   12.3368   -2.7037 H   0  0  0  0  0  0  0  0  0  0  0  0
    1.5800   11.7816    0.3138 H   0  0  0  0  0  0  0  0  0  0  0  0
    1.3820   10.3445   -0.7457 H   0  0  0  0  0  0  0  0  0  0  0  0
    2.9312   11.2538   -0.7457 H   0  0  0  0  0  0  0  0  0  0  0  0
  1  2  1  0
  2  3  1  0
  3  4  1  0
  4  5  1  0
  5  6  1  0
  6  7  1  0
  7  8  1  0
  7  9  1  0
  2 10  1  0
 10 11  1  0
 11 12  1  0
 12 13  1  0
 13 14  1  6
 13 15  1  0
 15 16  1  0
 16 17  1  0
 17 18  2  0
 18 19  1  0
 19 20  1  0
 20 21  1  0
 21 22  1  0
 22 23  1  0
 22 24  1  0
 24 25  1  0
 24 26  1  0
 19 27  1  0
 27 28  1  1
 27 29  1  0
 29 30  1  0
 30 31  1  0
 31 32  1  1
  7  5  1  0
 31 10  1  0
 31 13  1  0
 27 15  1  0
 24 18  1  0
  1 33  1  0
  1 34  1  0
  1 35  1  0
  2 36  1  6
  3 37  1  0
  3 38  1  0
  4 39  1  0
  4 40  1  0
  5 41  1  1
  8 42  1  0
  8 43  1  0
  8 44  1  0
  9 45  1  0
  9 46  1  0
  9 47  1  0
 10 48  1  6
 11 49  1  0
 11 50  1  0
 12 51  1  0
 12 52  1  0
 14 53  1  0
 14 54  1  0
 14 55  1  0
 15 56  1  1
 16 57  1  0
 16 58  1  0
 17 59  1  0
 19 60  1  6
 20 61  1  0
 20 62  1  0
 21 63  1  0
 21 64  1  0
 22 65  1  6
 23 66  1  0
 25 67  1  0
 25 68  1  0
 25 69  1  0
 26 70  1  0
 26 71  1  0
 26 72  1  0
 28 73  1  0
 28 74  1  0
 28 75  1  0
 29 76  1  0
 29 77  1  0
 30 78  1  0
 30 79  1  0
 32 80  1  0
 32 81  1  0
 32 82  1  0
M  END
>  <meeko>  (6) 
{"is_sidechain": [false], "intermolecular_energy": 2.731, "internal_energy": -0.839}

$$$$
EPH_relaxed_0001_pdb2pqr_Repair_217_r2_0001_out
     RDKit          3D

 82 86  0  0  0  0  0  0  0  0999 V2000
    3.8400   17.1240    0.5260 C   0  0  0  0  0  0  0  0  0  0  0  0
    2.9860   17.3730   -0.7200 C   0  0  2  0  0  0  0  0  0  0  0  0
    2.4220   18.8080   -0.7600 C   0  0  0  0  0  0  0  0  0  0  0  0
    1.4070   19.1010    0.3480 C   0  0  0  0  0  0  0  0  0  0  0  0
    0.1510   19.7100   -0.1980 C   0  0  2  0  0  0  0  0  0  0  0  0
   -0.7650   20.1870    0.7970 O   0  0  0  0  0  0  0  0  0  0  0  0
   -1.2240   19.0950   -0.0170 C   0  0  0  0  0  0  0  0  0  0  0  0
   -1.4130   17.8140    0.7340 C   0  0  0  0  0  0  0  0  0  0  0  0
   -2.3090   19.4730   -0.9760 C   0  0  0  0  0  0  0  0  0  0  0  0
    1.8450   16.3640   -0.7790 C   0  0  1  0  0  0  0  0  0  0  0  0
    0.5800   16.9320   -1.4740 C   0  0  0  0  0  0  0  0  0  0  0  0
   -0.0740   15.7560   -2.2450 C   0  0  0  0  0  0  0  0  0  0  0  0
    0.6380   14.4930   -1.7050 C   0  0  1  0  0  0  0  0  0  0  0  0
   -0.0810   14.1740   -0.3560 C   0  0  0  0  0  0  0  0  0  0  0  0
    0.6580   13.2520   -2.6550 C   0  0  2  0  0  0  0  0  0  0  0  0
   -0.7250   12.6750   -3.0060 C   0  0  0  0  0  0  0  0  0  0  0  0
   -1.2240   11.6110   -2.0860 C   0  0  0  0  0  0  0  0  0  0  0  0
   -0.4770   10.9350   -1.1930 C   0  0  0  0  0  0  0  0  0  0  0  0
    1.0400   11.1510   -1.1110 C   0  0  1  0  0  0  0  0  0  0  0  0
    1.7560    9.7770   -1.0450 C   0  0  0  0  0  0  0  0  0  0  0  0
    1.2300    8.8970    0.0840 C   0  0  0  0  0  0  0  0  0  0  0  0
   -0.2700    8.6570   -0.0640 C   0  0  2  0  0  0  0  0  0  0  0  0
   -0.4970    7.8680   -1.2370 O   0  0  0  0  0  0  0  0  0  0  0  0
   -1.0950    9.9710   -0.1510 C   0  0  0  0  0  0  0  0  0  0  0  0
   -1.0940   10.6780    1.2270 C   0  0  0  0  0  0  0  0  0  0  0  0
   -2.5720    9.5890   -0.4410 C   0  0  0  0  0  0  0  0  0  0  0  0
    1.6630   12.1130   -2.2120 C   0  0  1  0  0  0  0  0  0  0  0  0
    2.0070   11.2980   -3.4970 C   0  0  0  0  0  0  0  0  0  0  0  0
    3.0260   12.6920   -1.6760 C   0  0  0  0  0  0  0  0  0  0  0  0
    2.9510   13.9860   -0.8440 C   0  0  0  0  0  0  0  0  0  0  0  0
    2.1010   15.0460   -1.5520 C   0  0  2  0  0  0  0  0  0  0  0  0
    2.8110   15.4030   -2.9030 C   0  0  0  0  0  0  0  0  0  0  0  0
    3.2342   17.3006    1.4270 H   0  0  0  0  0  0  0  0  0  0  0  0
    4.1983   16.0840    0.5231 H   0  0  0  0  0  0  0  0  0  0  0  0
    4.7011   17.8085    0.5231 H   0  0  0  0  0  0  0  0  0  0  0  0
    3.6377   17.2491   -1.5975 H   0  0  0  0  0  0  0  0  0  0  0  0
    3.2599   19.5135   -0.6589 H   0  0  0  0  0  0  0  0  0  0  0  0
    1.8933   18.9192   -1.7182 H   0  0  0  0  0  0  0  0  0  0  0  0
    1.1543   18.1597    0.8581 H   0  0  0  0  0  0  0  0  0  0  0  0
    1.8603   19.8188    1.0474 H   0  0  0  0  0  0  0  0  0  0  0  0
    0.6857   20.0723   -1.0884 H   0  0  0  0  0  0  0  0  0  0  0  0
   -1.3833   18.0150    1.8151 H   0  0  0  0  0  0  0  0  0  0  0  0
   -2.3858   17.3739    0.4694 H   0  0  0  0  0  0  0  0  0  0  0  0
   -0.6087   17.1117    0.4694 H   0  0  0  0  0  0  0  0  0  0  0  0
   -3.2024   19.7842   -0.4148 H   0  0  0  0  0  0  0  0  0  0  0  0
   -1.9656   20.3044   -1.6091 H   0  0  0  0  0  0  0  0  0  0  0  0
   -2.5565   18.6081   -1.6091 H   0  0  0  0  0  0  0  0  0  0  0  0
    1.7289   16.1543    0.2946 H   0  0  0  0  0  0  0  0  0  0  0  0
   -0.1193   17.3278   -0.7228 H   0  0  0  0  0  0  0  0  0  0  0  0
    0.8403   17.7548   -2.1560 H   0  0  0  0  0  0  0  0  0  0  0  0
   -1.1539   15.7104   -2.0409 H   0  0  0  0  0  0  0  0  0  0  0  0
    0.0315   15.8611   -3.3349 H   0  0  0  0  0  0  0  0  0  0  0  0
    0.5691   14.4624    0.4831 H   0  0  0  0  0  0  0  0  0  0  0  0
   -1.0235   14.7384   -0.3004 H   0  0  0  0  0  0  0  0  0  0  0  0
   -0.2950   13.0965   -0.3004 H   0  0  0  0  0  0  0  0  0  0  0  0
    1.0496   13.6784   -3.5903 H   0  0  0  0  0  0  0  0  0  0  0  0
   -1.4508   13.5015   -2.9952 H   0  0  0  0  0  0  0  0  0  0  0  0
   -0.6148   12.1983   -3.9912 H   0  0  0  0  0  0  0  0  0  0  0  0
   -2.2929   11.3576   -2.1424 H   0  0  0  0  0  0  0  0  0  0  0  0
    1.2185   11.7087   -0.1798 H   0  0  0  0  0  0  0  0  0  0  0  0
    1.6033    9.2536   -2.0004 H   0  0  0  0  0  0  0  0  0  0  0  0
    2.8225    9.9652   -0.8524 H   0  0  0  0  0  0  0  0  0  0  0  0
    1.7533    7.9297    0.0599 H   0  0  0  0  0  0  0  0  0  0  0  0
    1.4106    9.4088    1.0408 H   0  0  0  0  0  0  0  0  0  0  0  0
   -0.6109    8.1320    0.8405 H   0  0  0  0  0  0  0  0  0  0  0  0
    0.3690    7.6790   -1.6360 H   0  0  0  0  0  0  0  0  0  0  0  0
   -1.0951    9.9226    2.0267 H   0  0  0  0  0  0  0  0  0  0  0  0
   -0.1950   11.3055    1.3165 H   0  0  0  0  0  0  0  0  0  0  0  0
   -1.9913   11.3080    1.3165 H   0  0  0  0  0  0  0  0  0  0  0  0
   -3.1082    9.4503    0.5094 H   0  0  0  0  0  0  0  0  0  0  0  0
   -3.0519   10.3926   -1.0189 H   0  0  0  0  0  0  0  0  0  0  0  0
   -2.6021    8.6535   -1.0189 H   0  0  0  0  0  0  0  0  0  0  0  0
    2.4200   10.3194   -3.2109 H   0  0  0  0  0  0  0  0  0  0  0  0
    1.0943   11.1507   -4.0931 H   0  0  0  0  0  0  0  0  0  0  0  0
    2.7492   11.8492   -4.0931 H   0  0  0  0  0  0  0  0  0  0  0  0
    3.4920   11.9187   -1.0476 H   0  0  0  0  0  0  0  0  0  0  0  0
    3.5985   12.9610   -2.5760 H   0  0  0  0  0  0  0  0  0  0  0  0
    2.5017   13.7592    0.1341 H   0  0  0  0  0  0  0  0  0  0  0  0
    3.9699   14.3809   -0.7180 H   0  0  0  0  0  0  0  0  0  0  0  0
    3.7757   15.8881   -2.6932 H   0  0  0  0  0  0  0  0  0  0  0  0
    2.9812   14.4833   -3.4820 H   0  0  0  0  0  0  0  0  0  0  0  0
    2.1743   16.0882   -3.4820 H   0  0  0  0  0  0  0  0  0  0  0  0
  1  2  1  0
  2  3  1  0
  3  4  1  0
  4  5  1  0
  5  6  1  0
  6  7  1  0
  7  8  1  0
  7  9  1  0
  2 10  1  0
 10 11  1  0
 11 12  1  0
 12 13  1  0
 13 14  1  1
 13 15  1  0
 15 16  1  0
 16 17  1  0
 17 18  2  0
 18 19  1  0
 19 20  1  0
 20 21  1  0
 21 22  1  0
 22 23  1  0
 22 24  1  0
 24 25  1  0
 24 26  1  0
 19 27  1  0
 27 28  1  6
 27 29  1  0
 29 30  1  0
 30 31  1  0
 31 32  1  6
  7  5  1  0
 31 10  1  0
 31 13  1  0
 27 15  1  0
 24 18  1  0
  1 33  1  0
  1 34  1  0
  1 35  1  0
  2 36  1  6
  3 37  1  0
  3 38  1  0
  4 39  1  0
  4 40  1  0
  5 41  1  6
  8 42  1  0
  8 43  1  0
  8 44  1  0
  9 45  1  0
  9 46  1  0
  9 47  1  0
 10 48  1  1
 11 49  1  0
 11 50  1  0
 12 51  1  0
 12 52  1  0
 14 53  1  0
 14 54  1  0
 14 55  1  0
 15 56  1  6
 16 57  1  0
 16 58  1  0
 17 59  1  0
 19 60  1  1
 20 61  1  0
 20 62  1  0
 21 63  1  0
 21 64  1  0
 22 65  1  1
 23 66  1  0
 25 67  1  0
 25 68  1  0
 25 69  1  0
 26 70  1  0
 26 71  1  0
 26 72  1  0
 28 73  1  0
 28 74  1  0
 28 75  1  0
 29 76  1  0
 29 77  1  0
 30 78  1  0
 30 79  1  0
 32 80  1  0
 32 81  1  0
 32 82  1  0
M  END
>  <meeko>  (7) 
{"is_sidechain": [false], "intermolecular_energy": 2.731, "internal_energy": -0.839}

$$$$
EPH_relaxed_0001_pdb2pqr_Repair_217_r2_0001_out
     RDKit          3D

 82 86  0  0  0  0  0  0  0  0999 V2000
   -0.2890   10.5000   -4.0580 C   0  0  0  0  0  0  0  0  0  0  0  0
    0.9320   10.3390   -3.1470 C   0  0  2  0  0  0  0  0  0  0  0  0
    0.9080    9.0060   -2.3740 C   0  0  0  0  0  0  0  0  0  0  0  0
   -0.4820    8.6150   -1.8630 C   0  0  0  0  0  0  0  0  0  0  0  0
   -0.6710    8.9950   -0.4260 C   0  0  2  0  0  0  0  0  0  0  0  0
   -2.0330    8.9930    0.0200 O   0  0  0  0  0  0  0  0  0  0  0  0
   -1.3680   10.2670    0.0190 C   0  0  0  0  0  0  0  0  0  0  0  0
   -1.9210   11.2410   -0.9740 C   0  0  0  0  0  0  0  0  0  0  0  0
   -1.0820   10.7990    1.3880 C   0  0  0  0  0  0  0  0  0  0  0  0
    1.0080   11.5070   -2.1710 C   0  0  1  0  0  0  0  0  0  0  0  0
    2.0660   11.2860   -1.0570 C   0  0  0  0  0  0  0  0  0  0  0  0
    2.6780   12.6750   -0.7390 C   0  0  0  0  0  0  0  0  0  0  0  0
    1.7320   13.6850   -1.4310 C   0  0  1  0  0  0  0  0  0  0  0  0
    0.5320   13.8490   -0.4470 C   0  0  0  0  0  0  0  0  0  0  0  0
    2.3570   15.0660   -1.8140 C   0  0  2  0  0  0  0  0  0  0  0  0
    2.8590   15.9070   -0.6270 C   0  0  0  0  0  0  0  0  0  0  0  0
    1.8540   16.8410   -0.0380 C   0  0  0  0  0  0  0  0  0  0  0  0
    0.6950   17.2090   -0.6150 C   0  0  0  0  0  0  0  0  0  0  0  0
    0.3410   16.7470   -2.0340 C   0  0  1  0  0  0  0  0  0  0  0  0
   -0.1790   17.9550   -2.8570 C   0  0  0  0  0  0  0  0  0  0  0  0
   -1.3370   18.6750   -2.1720 C   0  0  0  0  0  0  0  0  0  0  0  0
   -0.9270   19.1700   -0.7870 C   0  0  2  0  0  0  0  0  0  0  0  0
    0.0620   20.1930   -0.9360 O   0  0  0  0  0  0  0  0  0  0  0  0
   -0.3780   18.0410    0.1300 C   0  0  0  0  0  0  0  0  0  0  0  0
   -1.5320   17.0930    0.5370 C   0  0  0  0  0  0  0  0  0  0  0  0
    0.1290   18.6970    1.4420 C   0  0  0  0  0  0  0  0  0  0  0  0
    1.4680   15.9280   -2.7990 C   0  0  1  0  0  0  0  0  0  0  0  0
    2.4370   16.9090   -3.5280 C   0  0  0  0  0  0  0  0  0  0  0  0
    0.7960   15.0520   -3.9210 C   0  0  0  0  0  0  0  0  0  0  0  0
    0.3070   13.6510   -3.5080 C   0  0  0  0  0  0  0  0  0  0  0  0
    1.3970   12.8920   -2.7460 C   0  0  2  0  0  0  0  0  0  0  0  0
    2.6090   12.6920   -3.7180 C   0  0  0  0  0  0  0  0  0  0  0  0
   -1.1927   10.6192   -3.4423 H   0  0  0  0  0  0  0  0  0  0  0  0
   -0.1581   11.3887   -4.6929 H   0  0  0  0  0  0  0  0  0  0  0  0
   -0.3929    9.6078   -4.6929 H   0  0  0  0  0  0  0  0  0  0  0  0
    1.8257   10.3313   -3.7883 H   0  0  0  0  0  0  0  0  0  0  0  0
    1.2686    8.2104   -3.0426 H   0  0  0  0  0  0  0  0  0  0  0  0
    1.5504    9.1353   -1.4905 H   0  0  0  0  0  0  0  0  0  0  0  0
   -1.2424    9.1278   -2.4704 H   0  0  0  0  0  0  0  0  0  0  0  0
   -0.5829    7.5227   -1.9451 H   0  0  0  0  0  0  0  0  0  0  0  0
    0.3002    8.5536   -0.1578 H   0  0  0  0  0  0  0  0  0  0  0  0
   -2.3962   12.0779   -0.4412 H   0  0  0  0  0  0  0  0  0  0  0  0
   -1.1056   11.6239   -1.6053 H   0  0  0  0  0  0  0  0  0  0  0  0
   -2.6677   10.7370   -1.6053 H   0  0  0  0  0  0  0  0  0  0  0  0
   -1.4612   10.0936    2.1421 H   0  0  0  0  0  0  0  0  0  0  0  0
    0.0038   10.9220    1.5142 H   0  0  0  0  0  0  0  0  0  0  0  0
   -1.5784   11.7725    1.5142 H   0  0  0  0  0  0  0  0  0  0  0  0
   -0.0356   11.5245   -1.8236 H   0  0  0  0  0  0  0  0  0  0  0  0
    1.5884   10.8679   -0.1586 H   0  0  0  0  0  0  0  0  0  0  0  0
    2.8419   10.5782   -1.3841 H   0  0  0  0  0  0  0  0  0  0  0  0
    2.7043   12.8485    0.3469 H   0  0  0  0  0  0  0  0  0  0  0  0
    3.7157   12.7649   -1.0928 H   0  0  0  0  0  0  0  0  0  0  0  0
    0.8980   13.7990    0.5891 H   0  0  0  0  0  0  0  0  0  0  0  0
    0.0477   14.8217   -0.6183 H   0  0  0  0  0  0  0  0  0  0  0  0
   -0.1955   13.0419   -0.6183 H   0  0  0  0  0  0  0  0  0  0  0  0
    3.2578   14.7711   -2.3722 H   0  0  0  0  0  0  0  0  0  0  0  0
    3.1866   15.2168    0.1644 H   0  0  0  0  0  0  0  0  0  0  0  0
    3.6678   16.5393   -1.0220 H   0  0  0  0  0  0  0  0  0  0  0  0
    2.0800   17.2644    0.9518 H   0  0  0  0  0  0  0  0  0  0  0  0
   -0.4587   16.0004   -1.9195 H   0  0  0  0  0  0  0  0  0  0  0  0
    0.6467   18.6683   -2.9963 H   0  0  0  0  0  0  0  0  0  0  0  0
   -0.5478   17.5695   -3.8190 H   0  0  0  0  0  0  0  0  0  0  0  0
   -1.6406   19.5352   -2.7867 H   0  0  0  0  0  0  0  0  0  0  0  0
   -2.1732   17.9691   -2.0600 H   0  0  0  0  0  0  0  0  0  0  0  0
   -1.8307   19.5606   -0.2962 H   0  0  0  0  0  0  0  0  0  0  0  0
    0.3740   20.4330   -0.0470 H   0  0  0  0  0  0  0  0  0  0  0  0
   -1.5946   17.0415    1.6340 H   0  0  0  0  0  0  0  0  0  0  0  0
   -2.4808   17.4759    0.1331 H   0  0  0  0  0  0  0  0  0  0  0  0
   -1.3406   16.0879    0.1331 H   0  0  0  0  0  0  0  0  0  0  0  0
   -0.2873   18.1583    2.3060 H   0  0  0  0  0  0  0  0  0  0  0  0
    1.2275   18.6496    1.4750 H   0  0  0  0  0  0  0  0  0  0  0  0
   -0.1938   19.7481    1.4750 H   0  0  0  0  0  0  0  0  0  0  0  0
    3.0054   17.4845   -2.7825 H   0  0  0  0  0  0  0  0  0  0  0  0
    3.1335   16.3360   -4.1578 H   0  0  0  0  0  0  0  0  0  0  0  0
    1.8555   17.5984   -4.1578 H   0  0  0  0  0  0  0  0  0  0  0  0
   -0.0727   15.6087   -4.3024 H   0  0  0  0  0  0  0  0  0  0  0  0
    1.5899   14.8734   -4.6611 H   0  0  0  0  0  0  0  0  0  0  0  0
   -0.5776   13.7546   -2.8624 H   0  0  0  0  0  0  0  0  0  0  0  0
    0.0562   13.0851   -4.4173 H   0  0  0  0  0  0  0  0  0  0  0  0
    3.5276   12.5404   -3.1322 H   0  0  0  0  0  0  0  0  0  0  0  0
    2.4290   11.8114   -4.3522 H   0  0  0  0  0  0  0  0  0  0  0  0
    2.7215   13.5837   -4.3522 H   0  0  0  0  0  0  0  0  0  0  0  0
  1  2  1  0
  2  3  1  0
  3  4  1  0
  4  5  1  0
  5  6  1  0
  6  7  1  0
  7  8  1  0
  7  9  1  0
  2 10  1  0
 10 11  1  0
 11 12  1  0
 12 13  1  0
 13 14  1  1
 13 15  1  0
 15 16  1  0
 16 17  1  0
 17 18  2  0
 18 19  1  0
 19 20  1  0
 20 21  1  0
 21 22  1  0
 22 23  1  0
 22 24  1  0
 24 25  1  0
 24 26  1  0
 19 27  1  0
 27 28  1  6
 27 29  1  0
 29 30  1  0
 30 31  1  0
 31 32  1  6
  7  5  1  0
 31 10  1  0
 31 13  1  0
 27 15  1  0
 24 18  1  0
  1 33  1  0
  1 34  1  0
  1 35  1  0
  2 36  1  6
  3 37  1  0
  3 38  1  0
  4 39  1  0
  4 40  1  0
  5 41  1  1
  8 42  1  0
  8 43  1  0
  8 44  1  0
  9 45  1  0
  9 46  1  0
  9 47  1  0
 10 48  1  1
 11 49  1  0
 11 50  1  0
 12 51  1  0
 12 52  1  0
 14 53  1  0
 14 54  1  0
 14 55  1  0
 15 56  1  6
 16 57  1  0
 16 58  1  0
 17 59  1  0
 19 60  1  1
 20 61  1  0
 20 62  1  0
 21 63  1  0
 21 64  1  0
 22 65  1  1
 23 66  1  0
 25 67  1  0
 25 68  1  0
 25 69  1  0
 26 70  1  0
 26 71  1  0
 26 72  1  0
 28 73  1  0
 28 74  1  0
 28 75  1  0
 29 76  1  0
 29 77  1  0
 30 78  1  0
 30 79  1  0
 32 80  1  0
 32 81  1  0
 32 82  1  0
M  END
>  <meeko>  (8) 
{"is_sidechain": [false], "intermolecular_energy": 2.731, "internal_energy": -0.839}

$$$$
EPH_relaxed_0001_pdb2pqr_Repair_217_r2_0001_out
     RDKit          3D

 82 86  0  0  0  0  0  0  0  0999 V2000
   -3.7630    7.2070   -3.4100 C   0  0  0  0  0  0  0  0  0  0  0  0
   -3.7890    7.2900   -1.8810 C   0  0  2  0  0  0  0  0  0  0  0  0
   -5.2070    7.0800   -1.3120 C   0  0  0  0  0  0  0  0  0  0  0  0
   -6.3210    7.3060   -2.3380 C   0  0  0  0  0  0  0  0  0  0  0  0
   -7.6520    7.5020   -1.6770 C   0  0  2  0  0  0  0  0  0  0  0  0
   -8.2280    6.3110   -1.1260 O   0  0  0  0  0  0  0  0  0  0  0  0
   -8.9460    6.9190   -2.2120 C   0  0  0  0  0  0  0  0  0  0  0  0
   -8.9730    6.0950   -3.4610 C   0  0  0  0  0  0  0  0  0  0  0  0
  -10.2400    7.5510   -1.8010 C   0  0  0  0  0  0  0  0  0  0  0  0
   -3.2380    8.6350   -1.4240 C   0  0  1  0  0  0  0  0  0  0  0  0
   -3.8470    9.1030   -0.0750 C   0  0  0  0  0  0  0  0  0  0  0  0
   -2.7250    9.8550    0.6860 C   0  0  0  0  0  0  0  0  0  0  0  0
   -1.6210   10.0840   -0.3740 C   0  0  1  0  0  0  0  0  0  0  0  0
   -2.0900   11.3380   -1.1770 C   0  0  0  0  0  0  0  0  0  0  0  0
   -0.1660   10.2580    0.1710 C   0  0  2  0  0  0  0  0  0  0  0  0
    0.0480   11.4810    1.0790 C   0  0  0  0  0  0  0  0  0  0  0  0
    0.4620   12.7320    0.3770 C   0  0  0  0  0  0  0  0  0  0  0  0
    0.9280   12.8040   -0.8830 C   0  0  0  0  0  0  0  0  0  0  0  0
    1.1720   11.5330   -1.7070 C   0  0  1  0  0  0  0  0  0  0  0  0
    2.5590   11.6200   -2.3960 C   0  0  0  0  0  0  0  0  0  0  0  0
    2.7220   12.8920   -3.2230 C   0  0  0  0  0  0  0  0  0  0  0  0
    2.5300   14.1340   -2.3580 C   0  0  2  0  0  0  0  0  0  0  0  0
    3.6030   14.2090   -1.4140 O   0  0  0  0  0  0  0  0  0  0  0  0
    1.1700   14.1530   -1.6050 C   0  0  0  0  0  0  0  0  0  0  0  0
    0.0180   14.3760   -2.6170 C   0  0  0  0  0  0  0  0  0  0  0  0
    1.1630   15.3850   -0.6610 C   0  0  0  0  0  0  0  0  0  0  0  0
    0.9570   10.1580   -0.9390 C   0  0  1  0  0  0  0  0  0  0  0  0
    2.2710    9.7470   -0.2060 C   0  0  0  0  0  0  0  0  0  0  0  0
    0.6610    9.0230   -1.9890 C   0  0  0  0  0  0  0  0  0  0  0  0
   -0.8100    8.8210   -2.3980 C   0  0  0  0  0  0  0  0  0  0  0  0
   -1.7140    8.7280   -1.1640 C   0  0  2  0  0  0  0  0  0  0  0  0
   -1.2800    7.4630   -0.3480 C   0  0  0  0  0  0  0  0  0  0  0  0
   -3.4473    6.1991   -3.7172 H   0  0  0  0  0  0  0  0  0  0  0  0
   -4.7686    7.4127   -3.8055 H   0  0  0  0  0  0  0  0  0  0  0  0
   -3.0545    7.9496   -3.8055 H   0  0  0  0  0  0  0  0  0  0  0  0
   -3.1550    6.4783   -1.4947 H   0  0  0  0  0  0  0  0  0  0  0  0
   -5.2823    6.0479   -0.9391 H   0  0  0  0  0  0  0  0  0  0  0  0
   -5.3475    7.8252   -0.5151 H   0  0  0  0  0  0  0  0  0  0  0  0
   -6.0826    8.2008   -2.9318 H   0  0  0  0  0  0  0  0  0  0  0  0
   -6.3840    6.4135   -2.9780 H   0  0  0  0  0  0  0  0  0  0  0  0
   -7.3743    8.5204   -1.3674 H   0  0  0  0  0  0  0  0  0  0  0  0
   -9.0080    5.0280   -3.1957 H   0  0  0  0  0  0  0  0  0  0  0  0
   -9.8631    6.3551   -4.0527 H   0  0  0  0  0  0  0  0  0  0  0  0
   -8.0678    6.2962   -4.0527 H   0  0  0  0  0  0  0  0  0  0  0  0
  -10.3011    7.5808   -0.7031 H   0  0  0  0  0  0  0  0  0  0  0  0
  -10.2905    8.5752   -2.1990 H   0  0  0  0  0  0  0  0  0  0  0  0
  -11.0789    6.9612   -2.1990 H   0  0  0  0  0  0  0  0  0  0  0  0
   -3.5096    9.2505   -2.2943 H   0  0  0  0  0  0  0  0  0  0  0  0
   -4.6979    9.7759   -0.2568 H   0  0  0  0  0  0  0  0  0  0  0  0
   -4.2155    8.2473    0.5097 H   0  0  0  0  0  0  0  0  0  0  0  0
   -3.0954   10.8151    1.0747 H   0  0  0  0  0  0  0  0  0  0  0  0
   -2.3583    9.2890    1.5550 H   0  0  0  0  0  0  0  0  0  0  0  0
   -2.3870   12.1321   -0.4762 H   0  0  0  0  0  0  0  0  0  0  0  0
   -1.2655   11.6973   -1.8103 H   0  0  0  0  0  0  0  0  0  0  0  0
   -2.9480   11.0681   -1.8103 H   0  0  0  0  0  0  0  0  0  0  0  0
   -0.0503    9.3791    0.8223 H   0  0  0  0  0  0  0  0  0  0  0  0
   -0.8967   11.6832    1.6051 H   0  0  0  0  0  0  0  0  0  0  0  0
    0.8791   11.2197    1.7505 H   0  0  0  0  0  0  0  0  0  0  0  0
    0.3789   13.6748    0.9376 H   0  0  0  0  0  0  0  0  0  0  0  0
    0.3788   11.5072   -2.4687 H   0  0  0  0  0  0  0  0  0  0  0  0
    3.3396   11.6005   -1.6212 H   0  0  0  0  0  0  0  0  0  0  0  0
    2.6467   10.7631   -3.0801 H   0  0  0  0  0  0  0  0  0  0  0  0
    3.7313   12.9103   -3.6599 H   0  0  0  0  0  0  0  0  0  0  0  0
    1.9593   12.8952   -4.0156 H   0  0  0  0  0  0  0  0  0  0  0  0
    2.5290   15.0056   -3.0291 H   0  0  0  0  0  0  0  0  0  0  0  0
    4.1200   13.3890   -1.4910 H   0  0  0  0  0  0  0  0  0  0  0  0
   -0.9196   14.5575   -2.0711 H   0  0  0  0  0  0  0  0  0  0  0  0
    0.2486   15.2462   -3.2492 H   0  0  0  0  0  0  0  0  0  0  0  0
   -0.0928   13.4826   -3.2492 H   0  0  0  0  0  0  0  0  0  0  0  0
    1.1649   15.0453    0.3852 H   0  0  0  0  0  0  0  0  0  0  0  0
    2.0577   15.9965   -0.8496 H   0  0  0  0  0  0  0  0  0  0  0  0
    0.2614   15.9863   -0.8496 H   0  0  0  0  0  0  0  0  0  0  0  0
    2.1147    9.7959    0.8817 H   0  0  0  0  0  0  0  0  0  0  0  0
    2.5444    8.7204   -0.4914 H   0  0  0  0  0  0  0  0  0  0  0  0
    3.0806   10.4348   -0.4914 H   0  0  0  0  0  0  0  0  0  0  0  0
    1.2307    9.2563   -2.9006 H   0  0  0  0  0  0  0  0  0  0  0  0
    0.9519    8.0868   -1.4901 H   0  0  0  0  0  0  0  0  0  0  0  0
   -1.1317    9.6718   -3.0166 H   0  0  0  0  0  0  0  0  0  0  0  0
   -0.8911    7.8813   -2.9641 H   0  0  0  0  0  0  0  0  0  0  0  0
   -1.3537    7.6779    0.7283 H   0  0  0  0  0  0  0  0  0  0  0  0
   -1.9403    6.6200   -0.5997 H   0  0  0  0  0  0  0  0  0  0  0  0
   -0.2412    7.2029   -0.5997 H   0  0  0  0  0  0  0  0  0  0  0  0
  1  2  1  0
  2  3  1  0
  3  4  1  0
  4  5  1  0
  5  6  1  0
  6  7  1  0
  7  8  1  0
  7  9  1  0
  2 10  1  0
 10 11  1  0
 11 12  1  0
 12 13  1  0
 13 14  1  6
 13 15  1  0
 15 16  1  0
 16 17  1  0
 17 18  2  0
 18 19  1  0
 19 20  1  0
 20 21  1  0
 21 22  1  0
 22 23  1  0
 22 24  1  0
 24 25  1  0
 24 26  1  0
 19 27  1  0
 27 28  1  1
 27 29  1  0
 29 30  1  0
 30 31  1  0
 31 32  1  1
  7  5  1  0
 31 10  1  0
 31 13  1  0
 27 15  1  0
 24 18  1  0
  1 33  1  0
  1 34  1  0
  1 35  1  0
  2 36  1  1
  3 37  1  0
  3 38  1  0
  4 39  1  0
  4 40  1  0
  5 41  1  1
  8 42  1  0
  8 43  1  0
  8 44  1  0
  9 45  1  0
  9 46  1  0
  9 47  1  0
 10 48  1  6
 11 49  1  0
 11 50  1  0
 12 51  1  0
 12 52  1  0
 14 53  1  0
 14 54  1  0
 14 55  1  0
 15 56  1  1
 16 57  1  0
 16 58  1  0
 17 59  1  0
 19 60  1  6
 20 61  1  0
 20 62  1  0
 21 63  1  0
 21 64  1  0
 22 65  1  6
 23 66  1  0
 25 67  1  0
 25 68  1  0
 25 69  1  0
 26 70  1  0
 26 71  1  0
 26 72  1  0
 28 73  1  0
 28 74  1  0
 28 75  1  0
 29 76  1  0
 29 77  1  0
 30 78  1  0
 30 79  1  0
 32 80  1  0
 32 81  1  0
 32 82  1  0
M  END
>  <meeko>  (9) 
{"is_sidechain": [false], "intermolecular_energy": 2.731, "internal_energy": -0.839}

$$$$
EPH_relaxed_0001_pdb2pqr_Repair_217_r2_0001_out
     RDKit          3D

 82 86  0  0  0  0  0  0  0  0999 V2000
   -0.8510   16.3400   -5.8140 C   0  0  0  0  0  0  0  0  0  0  0  0
    0.2360   15.6340   -6.6300 C   0  0  2  0  0  0  0  0  0  0  0  0
   -0.1710   15.4560   -8.1070 C   0  0  0  0  0  0  0  0  0  0  0  0
    0.4540   16.4910   -9.0460 C   0  0  0  0  0  0  0  0  0  0  0  0
    1.8560   16.1210   -9.4250 C   0  0  2  0  0  0  0  0  0  0  0  0
    2.3200   16.7070  -10.6480 O   0  0  0  0  0  0  0  0  0  0  0  0
    2.2000   15.2750  -10.6370 C   0  0  0  0  0  0  0  0  0  0  0  0
    1.1360   14.7460  -11.5470 C   0  0  0  0  0  0  0  0  0  0  0  0
    3.5140   14.5590  -10.6600 C   0  0  0  0  0  0  0  0  0  0  0  0
    0.5520   14.2780   -6.0100 C   0  0  1  0  0  0  0  0  0  0  0  0
    1.8070   13.6130   -6.6360 C   0  0  0  0  0  0  0  0  0  0  0  0
    2.5210   12.8420   -5.4960 C   0  0  0  0  0  0  0  0  0  0  0  0
    1.4920   12.8120   -4.3420 C   0  0  1  0  0  0  0  0  0  0  0  0
    0.5250   11.6400   -4.6980 C   0  0  0  0  0  0  0  0  0  0  0  0
    2.0770   12.6600   -2.9000 C   0  0  2  0  0  0  0  0  0  0  0  0
    2.8410   11.3500   -2.6390 C   0  0  0  0  0  0  0  0  0  0  0  0
    2.0130   10.2220   -2.1200 C   0  0  0  0  0  0  0  0  0  0  0  0
    0.7750   10.3330   -1.6030 C   0  0  0  0  0  0  0  0  0  0  0  0
    0.1220   11.7080   -1.4120 C   0  0  1  0  0  0  0  0  0  0  0  0
   -0.5100   11.7900    0.0020 C   0  0  0  0  0  0  0  0  0  0  0  0
   -1.4760   10.6410    0.2780 C   0  0  0  0  0  0  0  0  0  0  0  0
   -0.7750    9.2930    0.1360 C   0  0  2  0  0  0  0  0  0  0  0  0
    0.2000    9.1680    1.1760 O   0  0  0  0  0  0  0  0  0  0  0  0
   -0.0920    9.1000   -1.2470 C   0  0  0  0  0  0  0  0  0  0  0  0
   -1.1740    8.9340   -2.3430 C   0  0  0  0  0  0  0  0  0  0  0  0
    0.6960    7.7630   -1.2080 C   0  0  0  0  0  0  0  0  0  0  0  0
    1.0390   12.9630   -1.7440 C   0  0  1  0  0  0  0  0  0  0  0  0
    1.8730   13.3600   -0.4880 C   0  0  0  0  0  0  0  0  0  0  0  0
    0.1190   14.1980   -2.0750 C   0  0  0  0  0  0  0  0  0  0  0  0
   -0.3270   14.3600   -3.5400 C   0  0  0  0  0  0  0  0  0  0  0  0
    0.8670   14.2460   -4.4930 C   0  0  2  0  0  0  0  0  0  0  0  0
    1.8480   15.4260   -4.1730 C   0  0  0  0  0  0  0  0  0  0  0  0
   -0.6479   16.2081   -4.7410 H   0  0  0  0  0  0  0  0  0  0  0  0
   -0.8537   17.4127   -6.0575 H   0  0  0  0  0  0  0  0  0  0  0  0
   -1.8321   15.9063   -6.0575 H   0  0  0  0  0  0  0  0  0  0  0  0
    1.1327   16.2708   -6.6089 H   0  0  0  0  0  0  0  0  0  0  0  0
    0.1432   14.4543   -8.4356 H   0  0  0  0  0  0  0  0  0  0  0  0
   -1.2614   15.5916   -8.1588 H   0  0  0  0  0  0  0  0  0  0  0  0
   -0.1560   16.5583   -9.9589 H   0  0  0  0  0  0  0  0  0  0  0  0
    0.4846   17.4566   -8.5200 H   0  0  0  0  0  0  0  0  0  0  0  0
    2.1472   16.0467   -8.3669 H   0  0  0  0  0  0  0  0  0  0  0  0
    0.3107   14.3357  -10.9466 H   0  0  0  0  0  0  0  0  0  0  0  0
    0.7578   15.5610  -12.1816 H   0  0  0  0  0  0  0  0  0  0  0  0
    1.5575   13.9525  -12.1816 H   0  0  0  0  0  0  0  0  0  0  0  0
    3.8499   14.3760   -9.6287 H   0  0  0  0  0  0  0  0  0  0  0  0
    3.3992   13.5987  -11.1841 H   0  0  0  0  0  0  0  0  0  0  0  0
    4.2587   15.1761  -11.1841 H   0  0  0  0  0  0  0  0  0  0  0  0
   -0.3969   13.7583   -6.2091 H   0  0  0  0  0  0  0  0  0  0  0  0
    1.5087   12.9177   -7.4344 H   0  0  0  0  0  0  0  0  0  0  0  0
    2.4733   14.3672   -7.0801 H   0  0  0  0  0  0  0  0  0  0  0  0
    2.7744   11.8209   -5.8171 H   0  0  0  0  0  0  0  0  0  0  0  0
    3.4672   13.3179   -5.1992 H   0  0  0  0  0  0  0  0  0  0  0  0
    0.1472   11.1822   -3.7719 H   0  0  0  0  0  0  0  0  0  0  0  0
   -0.3197   12.0275   -5.2865 H   0  0  0  0  0  0  0  0  0  0  0  0
    1.0659   10.8843   -5.2865 H   0  0  0  0  0  0  0  0  0  0  0  0
    2.8335   13.4580   -2.8683 H   0  0  0  0  0  0  0  0  0  0  0  0
    3.2979   11.0284   -3.5865 H   0  0  0  0  0  0  0  0  0  0  0  0
    3.5743   11.5770   -1.8511 H   0  0  0  0  0  0  0  0  0  0  0  0
    2.4516    9.2142   -2.1636 H   0  0  0  0  0  0  0  0  0  0  0  0
   -0.6652   11.7792   -2.1770 H   0  0  0  0  0  0  0  0  0  0  0  0
    0.2955   11.7612    0.7506 H   0  0  0  0  0  0  0  0  0  0  0  0
   -1.0816   12.7281    0.0587 H   0  0  0  0  0  0  0  0  0  0  0  0
   -1.8669   10.7374    1.3017 H   0  0  0  0  0  0  0  0  0  0  0  0
   -2.2964   10.6888   -0.4532 H   0  0  0  0  0  0  0  0  0  0  0  0
   -1.5445    8.5112    0.2173 H   0  0  0  0  0  0  0  0  0  0  0  0
    0.8330    8.4820    0.9040 H   0  0  0  0  0  0  0  0  0  0  0  0
   -2.1554    8.7834   -1.8695 H   0  0  0  0  0  0  0  0  0  0  0  0
   -1.2037    9.8381   -2.9689 H   0  0  0  0  0  0  0  0  0  0  0  0
   -0.9313    8.0626   -2.9689 H   0  0  0  0  0  0  0  0  0  0  0  0
    0.8689    7.4697   -0.1620 H   0  0  0  0  0  0  0  0  0  0  0  0
    0.1150    6.9800   -1.7172 H   0  0  0  0  0  0  0  0  0  0  0  0
    1.6625    7.8920   -1.7172 H   0  0  0  0  0  0  0  0  0  0  0  0
    1.3148   13.0943    0.4218 H   0  0  0  0  0  0  0  0  0  0  0  0
    2.8324   12.8220   -0.4998 H   0  0  0  0  0  0  0  0  0  0  0  0
    2.0603   14.4439   -0.4998 H   0  0  0  0  0  0  0  0  0  0  0  0
   -0.7881   14.1116   -1.4588 H   0  0  0  0  0  0  0  0  0  0  0  0
    0.7381   15.0823   -1.8636 H   0  0  0  0  0  0  0  0  0  0  0  0
   -1.0573   13.5741   -3.7827 H   0  0  0  0  0  0  0  0  0  0  0  0
   -0.7782   15.3559   -3.6610 H   0  0  0  0  0  0  0  0  0  0  0  0
    1.9421   15.5392   -3.0829 H   0  0  0  0  0  0  0  0  0  0  0  0
    2.8358   15.2092   -4.6058 H   0  0  0  0  0  0  0  0  0  0  0  0
    1.4545   16.3576   -4.6058 H   0  0  0  0  0  0  0  0  0  0  0  0
  1  2  1  0
  2  3  1  0
  3  4  1  0
  4  5  1  0
  5  6  1  0
  6  7  1  0
  7  8  1  0
  7  9  1  0
  2 10  1  0
 10 11  1  0
 11 12  1  0
 12 13  1  0
 13 14  1  6
 13 15  1  0
 15 16  1  0
 16 17  1  0
 17 18  2  0
 18 19  1  0
 19 20  1  0
 20 21  1  0
 21 22  1  0
 22 23  1  0
 22 24  1  0
 24 25  1  0
 24 26  1  0
 19 27  1  0
 27 28  1  1
 27 29  1  0
 29 30  1  0
 30 31  1  0
 31 32  1  1
  7  5  1  0
 31 10  1  0
 31 13  1  0
 27 15  1  0
 24 18  1  0
  1 33  1  0
  1 34  1  0
  1 35  1  0
  2 36  1  6
  3 37  1  0
  3 38  1  0
  4 39  1  0
  4 40  1  0
  5 41  1  1
  8 42  1  0
  8 43  1  0
  8 44  1  0
  9 45  1  0
  9 46  1  0
  9 47  1  0
 10 48  1  1
 11 49  1  0
 11 50  1  0
 12 51  1  0
 12 52  1  0
 14 53  1  0
 14 54  1  0
 14 55  1  0
 15 56  1  6
 16 57  1  0
 16 58  1  0
 17 59  1  0
 19 60  1  6
 20 61  1  0
 20 62  1  0
 21 63  1  0
 21 64  1  0
 22 65  1  1
 23 66  1  0
 25 67  1  0
 25 68  1  0
 25 69  1  0
 26 70  1  0
 26 71  1  0
 26 72  1  0
 28 73  1  0
 28 74  1  0
 28 75  1  0
 29 76  1  0
 29 77  1  0
 30 78  1  0
 30 79  1  0
 32 80  1  0
 32 81  1  0
 32 82  1  0
M  END
>  <meeko>  (10) 
{"is_sidechain": [false], "intermolecular_energy": 2.731, "internal_energy": -0.839}

$$$$
EPH_relaxed_0001_pdb2pqr_Repair_217_r2_0001_out
     RDKit          3D

 82 86  0  0  0  0  0  0  0  0999 V2000
   -2.2530    7.8740   -2.2650 C   0  0  0  0  0  0  0  0  0  0  0  0
   -2.1260    8.4400   -0.8470 C   0  0  2  0  0  0  0  0  0  0  0  0
   -3.4640    8.3970   -0.0830 C   0  0  0  0  0  0  0  0  0  0  0  0
   -4.6940    8.5120   -0.9880 C   0  0  0  0  0  0  0  0  0  0  0  0
   -5.5040    7.2500   -0.9840 C   0  0  2  0  0  0  0  0  0  0  0  0
   -5.5480    6.5640   -2.2420 O   0  0  0  0  0  0  0  0  0  0  0  0
   -6.7970    7.0850   -1.7600 C   0  0  0  0  0  0  0  0  0  0  0  0
   -7.3560    8.1960   -2.5930 C   0  0  0  0  0  0  0  0  0  0  0  0
   -7.7630    6.0280   -1.3230 C   0  0  0  0  0  0  0  0  0  0  0  0
   -1.6040    9.8710   -0.9040 C   0  0  1  0  0  0  0  0  0  0  0  0
   -1.1450   10.3950    0.4830 C   0  0  0  0  0  0  0  0  0  0  0  0
    0.0700   11.3240    0.2310 C   0  0  0  0  0  0  0  0  0  0  0  0
    0.0650   11.5670   -1.2960 C   0  0  1  0  0  0  0  0  0  0  0  0
   -0.9990   12.6880   -1.5200 C   0  0  0  0  0  0  0  0  0  0  0  0
    1.4390   11.9380   -1.9420 C   0  0  2  0  0  0  0  0  0  0  0  0
    2.0600   13.2550   -1.4430 C   0  0  0  0  0  0  0  0  0  0  0  0
    1.6840   14.4720   -2.2200 C   0  0  0  0  0  0  0  0  0  0  0  0
    1.1140   14.4770   -3.4400 C   0  0  0  0  0  0  0  0  0  0  0  0
    0.8790   13.1680   -4.2040 C   0  0  1  0  0  0  0  0  0  0  0  0
    1.3510   13.3340   -5.6720 C   0  0  0  0  0  0  0  0  0  0  0  0
    0.7090   14.5340   -6.3610 C   0  0  0  0  0  0  0  0  0  0  0  0
    1.0140   15.8240   -5.6030 C   0  0  2  0  0  0  0  0  0  0  0  0
    2.4160   16.0940   -5.6980 O   0  0  0  0  0  0  0  0  0  0  0  0
    0.5910   15.7720   -4.1090 C   0  0  0  0  0  0  0  0  0  0  0  0
   -0.9550   15.7820   -4.0040 C   0  0  0  0  0  0  0  0  0  0  0  0
    1.0810   17.0780   -3.4280 C   0  0  0  0  0  0  0  0  0  0  0  0
    1.4570   11.8530   -3.5220 C   0  0  1  0  0  0  0  0  0  0  0  0
    2.9450   11.6480   -3.9400 C   0  0  0  0  0  0  0  0  0  0  0  0
    0.6670   10.6040   -4.0630 C   0  0  0  0  0  0  0  0  0  0  0  0
   -0.6190   10.2150   -3.3100 C   0  0  0  0  0  0  0  0  0  0  0  0
   -0.3700   10.1430   -1.8000 C   0  0  2  0  0  0  0  0  0  0  0  0
    0.6790    9.0080   -1.5430 C   0  0  0  0  0  0  0  0  0  0  0  0
   -2.4935    6.8019   -2.2117 H   0  0  0  0  0  0  0  0  0  0  0  0
   -3.0547    8.4035   -2.8007 H   0  0  0  0  0  0  0  0  0  0  0  0
   -1.3020    8.0102   -2.8007 H   0  0  0  0  0  0  0  0  0  0  0  0
   -1.4132    7.8057   -0.2996 H   0  0  0  0  0  0  0  0  0  0  0  0
   -3.5220    7.4434    0.4622 H   0  0  0  0  0  0  0  0  0  0  0  0
   -3.4778    9.2670    0.5900 H   0  0  0  0  0  0  0  0  0  0  0  0
   -5.3231    9.3408   -0.6312 H   0  0  0  0  0  0  0  0  0  0  0  0
   -4.3481    8.6948   -2.0161 H   0  0  0  0  0  0  0  0  0  0  0  0
   -5.2449    7.0579    0.0676 H   0  0  0  0  0  0  0  0  0  0  0  0
   -7.7523    8.9837   -1.9354 H   0  0  0  0  0  0  0  0  0  0  0  0
   -6.5609    8.6141   -3.2279 H   0  0  0  0  0  0  0  0  0  0  0  0
   -8.1655    7.8067   -3.2279 H   0  0  0  0  0  0  0  0  0  0  0  0
   -7.7954    5.9926   -0.2240 H   0  0  0  0  0  0  0  0  0  0  0  0
   -8.7647    6.2633   -1.7119 H   0  0  0  0  0  0  0  0  0  0  0  0
   -7.4387    5.0515   -1.7119 H   0  0  0  0  0  0  0  0  0  0  0  0
   -2.4895   10.3735   -1.3204 H   0  0  0  0  0  0  0  0  0  0  0  0
   -1.9589   10.9578    0.9635 H   0  0  0  0  0  0  0  0  0  0  0  0
   -0.8741    9.5629    1.1495 H   0  0  0  0  0  0  0  0  0  0  0  0
   -0.0469   12.2726    0.7756 H   0  0  0  0  0  0  0  0  0  0  0  0
    1.0141   10.8800    0.5797 H   0  0  0  0  0  0  0  0  0  0  0  0
   -1.3512   13.0591   -0.5462 H   0  0  0  0  0  0  0  0  0  0  0  0
   -0.5462   13.5156   -2.0858 H   0  0  0  0  0  0  0  0  0  0  0  0
   -1.8490   12.2789   -2.0858 H   0  0  0  0  0  0  0  0  0  0  0  0
    2.0970   11.1379   -1.5721 H   0  0  0  0  0  0  0  0  0  0  0  0
    1.7436   13.4063   -0.4004 H   0  0  0  0  0  0  0  0  0  0  0  0
    3.1478   13.1425   -1.5616 H   0  0  0  0  0  0  0  0  0  0  0  0
    1.8899   15.4482   -1.7568 H   0  0  0  0  0  0  0  0  0  0  0  0
   -0.2064   12.9915   -4.1782 H   0  0  0  0  0  0  0  0  0  0  0  0
    2.4430   13.4664   -5.6784 H   0  0  0  0  0  0  0  0  0  0  0  0
    1.0492   12.4315   -6.2237 H   0  0  0  0  0  0  0  0  0  0  0  0
    1.1038   14.6156   -7.3845 H   0  0  0  0  0  0  0  0  0  0  0  0
   -0.3809   14.3868   -6.3806 H   0  0  0  0  0  0  0  0  0  0  0  0
    0.4227   16.6270   -6.0674 H   0  0  0  0  0  0  0  0  0  0  0  0
    2.5980   16.3920   -6.6050 H   0  0  0  0  0  0  0  0  0  0  0  0
   -1.2505   15.7839   -2.9444 H   0  0  0  0  0  0  0  0  0  0  0  0
   -1.3501   16.6827   -4.4965 H   0  0  0  0  0  0  0  0  0  0  0  0
   -1.3618   14.8865   -4.4965 H   0  0  0  0  0  0  0  0  0  0  0  0
    1.0369   16.9605   -2.3352 H   0  0  0  0  0  0  0  0  0  0  0  0
    2.1176   17.2840   -3.7331 H   0  0  0  0  0  0  0  0  0  0  0  0
    0.4358   17.9150   -3.7331 H   0  0  0  0  0  0  0  0  0  0  0  0
    3.5704   11.5618   -3.0392 H   0  0  0  0  0  0  0  0  0  0  0  0
    3.0346   10.7290   -4.5379 H   0  0  0  0  0  0  0  0  0  0  0  0
    3.2798   12.5085   -4.5379 H   0  0  0  0  0  0  0  0  0  0  0  0
    0.3910   10.8119   -5.1073 H   0  0  0  0  0  0  0  0  0  0  0  0
    1.3488    9.7516   -3.9267 H   0  0  0  0  0  0  0  0  0  0  0  0
   -1.3954   10.9678   -3.5111 H   0  0  0  0  0  0  0  0  0  0  0  0
   -0.9438    9.2239   -3.6595 H   0  0  0  0  0  0  0  0  0  0  0  0
    0.8090    8.8673   -0.4598 H   0  0  0  0  0  0  0  0  0  0  0  0
    0.3227    8.0703   -1.9944 H   0  0  0  0  0  0  0  0  0  0  0  0
    1.6418    9.2895   -1.9944 H   0  0  0  0  0  0  0  0  0  0  0  0
  1  2  1  0
  2  3  1  0
  3  4  1  0
  4  5  1  0
  5  6  1  0
  6  7  1  0
  7  8  1  0
  7  9  1  0
  2 10  1  0
 10 11  1  0
 11 12  1  0
 12 13  1  0
 13 14  1  1
 13 15  1  0
 15 16  1  0
 16 17  1  0
 17 18  2  0
 18 19  1  0
 19 20  1  0
 20 21  1  0
 21 22  1  0
 22 23  1  0
 22 24  1  0
 24 25  1  0
 24 26  1  0
 19 27  1  0
 27 28  1  6
 27 29  1  0
 29 30  1  0
 30 31  1  0
 31 32  1  6
  7  5  1  0
 31 10  1  0
 31 13  1  0
 27 15  1  0
 24 18  1  0
  1 33  1  0
  1 34  1  0
  1 35  1  0
  2 36  1  1
  3 37  1  0
  3 38  1  0
  4 39  1  0
  4 40  1  0
  5 41  1  1
  8 42  1  0
  8 43  1  0
  8 44  1  0
  9 45  1  0
  9 46  1  0
  9 47  1  0
 10 48  1  6
 11 49  1  0
 11 50  1  0
 12 51  1  0
 12 52  1  0
 14 53  1  0
 14 54  1  0
 14 55  1  0
 15 56  1  1
 16 57  1  0
 16 58  1  0
 17 59  1  0
 19 60  1  6
 20 61  1  0
 20 62  1  0
 21 63  1  0
 21 64  1  0
 22 65  1  6
 23 66  1  0
 25 67  1  0
 25 68  1  0
 25 69  1  0
 26 70  1  0
 26 71  1  0
 26 72  1  0
 28 73  1  0
 28 74  1  0
 28 75  1  0
 29 76  1  0
 29 77  1  0
 30 78  1  0
 30 79  1  0
 32 80  1  0
 32 81  1  0
 32 82  1  0
M  END
>  <meeko>  (11) 
{"is_sidechain": [false], "intermolecular_energy": 2.731, "internal_energy": -0.839}

$$$$
EPH_relaxed_0001_pdb2pqr_Repair_217_r2_0001_out
     RDKit          3D

 82 86  0  0  0  0  0  0  0  0999 V2000
    3.2980   18.4280   -2.8130 C   0  0  0  0  0  0  0  0  0  0  0  0
    2.0260   17.5900   -2.9710 C   0  0  2  0  0  0  0  0  0  0  0  0
    0.7640   18.3640   -2.5400 C   0  0  0  0  0  0  0  0  0  0  0  0
    0.9780   19.2580   -1.3160 C   0  0  0  0  0  0  0  0  0  0  0  0
   -0.2870   19.9480   -0.9050 C   0  0  2  0  0  0  0  0  0  0  0  0
   -0.4050   20.1940    0.5030 O   0  0  0  0  0  0  0  0  0  0  0  0
   -1.3650   19.2880   -0.0640 C   0  0  0  0  0  0  0  0  0  0  0  0
   -1.2260   17.8770    0.4150 C   0  0  0  0  0  0  0  0  0  0  0  0
   -2.7550   19.8400   -0.1210 C   0  0  0  0  0  0  0  0  0  0  0  0
    2.1480   16.3030   -2.1650 C   0  0  1  0  0  0  0  0  0  0  0  0
    2.5330   16.5600   -0.6830 C   0  0  0  0  0  0  0  0  0  0  0  0
    1.8040   15.4840    0.1620 C   0  0  0  0  0  0  0  0  0  0  0  0
    1.2980   14.4520   -0.8740 C   0  0  1  0  0  0  0  0  0  0  0  0
    2.5360   13.5520   -1.1810 C   0  0  0  0  0  0  0  0  0  0  0  0
    0.0570   13.6000   -0.4510 C   0  0  2  0  0  0  0  0  0  0  0  0
    0.2720   12.6960    0.7750 C   0  0  0  0  0  0  0  0  0  0  0  0
    0.7620   11.3190    0.4730 C   0  0  0  0  0  0  0  0  0  0  0  0
    0.7490   10.7320   -0.7380 C   0  0  0  0  0  0  0  0  0  0  0  0
    0.1120   11.4310   -1.9460 C   0  0  1  0  0  0  0  0  0  0  0  0
   -0.7950   10.4290   -2.7060 C   0  0  0  0  0  0  0  0  0  0  0  0
   -0.0580    9.1510   -3.0950 C   0  0  0  0  0  0  0  0  0  0  0  0
    0.5110    8.4540   -1.8620 C   0  0  2  0  0  0  0  0  0  0  0  0
   -0.5740    7.9820   -1.0570 O   0  0  0  0  0  0  0  0  0  0  0  0
    1.4340    9.3700   -1.0100 C   0  0  0  0  0  0  0  0  0  0  0  0
    2.7540    9.6350   -1.7760 C   0  0  0  0  0  0  0  0  0  0  0  0
    1.8260    8.5910    0.2740 C   0  0  0  0  0  0  0  0  0  0  0  0
   -0.6220   12.8080   -1.6410 C   0  0  1  0  0  0  0  0  0  0  0  0
   -2.0980   12.5420   -1.2150 C   0  0  0  0  0  0  0  0  0  0  0  0
   -0.6880   13.6590   -2.9650 C   0  0  0  0  0  0  0  0  0  0  0  0
    0.5170   14.5700   -3.2660 C   0  0  0  0  0  0  0  0  0  0  0  0
    0.8830   15.4170   -2.0430 C   0  0  2  0  0  0  0  0  0  0  0  0
   -0.3360   16.3480   -1.7240 C   0  0  0  0  0  0  0  0  0  0  0  0
    3.5132   18.5698   -1.7436 H   0  0  0  0  0  0  0  0  0  0  0  0
    4.1413   17.9081   -3.2909 H   0  0  0  0  0  0  0  0  0  0  0  0
    3.1531   19.4081   -3.2909 H   0  0  0  0  0  0  0  0  0  0  0  0
    1.9180   17.3505   -4.0392 H   0  0  0  0  0  0  0  0  0  0  0  0
    0.4410   18.9967   -3.3799 H   0  0  0  0  0  0  0  0  0  0  0  0
    0.0071   17.6155   -2.2628 H   0  0  0  0  0  0  0  0  0  0  0  0
    1.3337   18.6382   -0.4798 H   0  0  0  0  0  0  0  0  0  0  0  0
    1.7183   20.0279   -1.5792 H   0  0  0  0  0  0  0  0  0  0  0  0
   -0.3262   20.4951   -1.8585 H   0  0  0  0  0  0  0  0  0  0  0  0
   -1.2245   17.8616    1.5149 H   0  0  0  0  0  0  0  0  0  0  0  0
   -2.0695   17.2781    0.0411 H   0  0  0  0  0  0  0  0  0  0  0  0
   -0.2819   17.4542    0.0411 H   0  0  0  0  0  0  0  0  0  0  0  0
   -3.1322   19.9898    0.9014 H   0  0  0  0  0  0  0  0  0  0  0  0
   -2.7457   20.8027   -0.6531 H   0  0  0  0  0  0  0  0  0  0  0  0
   -3.4087   19.1332   -0.6531 H   0  0  0  0  0  0  0  0  0  0  0  0
    2.9142   15.7851   -2.7606 H   0  0  0  0  0  0  0  0  0  0  0  0
    3.6216   16.4699   -0.5534 H   0  0  0  0  0  0  0  0  0  0  0  0
    2.2410   17.5730   -0.3692 H   0  0  0  0  0  0  0  0  0  0  0  0
    2.4983   15.0123    0.8730 H   0  0  0  0  0  0  0  0  0  0  0  0
    0.9858   15.9084    0.7624 H   0  0  0  0  0  0  0  0  0  0  0  0
    2.9918   13.2207   -0.2363 H   0  0  0  0  0  0  0  0  0  0  0  0
    2.2162   12.6741   -1.7615 H   0  0  0  0  0  0  0  0  0  0  0  0
    3.2724   14.1270   -1.7615 H   0  0  0  0  0  0  0  0  0  0  0  0
   -0.6591   14.3712   -0.1308 H   0  0  0  0  0  0  0  0  0  0  0  0
    1.0085   13.1827    1.4313 H   0  0  0  0  0  0  0  0  0  0  0  0
   -0.7175   12.5721    1.2393 H   0  0  0  0  0  0  0  0  0  0  0  0
    1.1683   10.7342    1.3114 H   0  0  0  0  0  0  0  0  0  0  0  0
    0.9460   11.7424   -2.5921 H   0  0  0  0  0  0  0  0  0  0  0  0
   -1.6450   10.1632   -2.0604 H   0  0  0  0  0  0  0  0  0  0  0  0
   -1.1281   10.9176   -3.6335 H   0  0  0  0  0  0  0  0  0  0  0  0
   -0.7587    8.4712   -3.6019 H   0  0  0  0  0  0  0  0  0  0  0  0
    0.7736    9.4148   -3.7649 H   0  0  0  0  0  0  0  0  0  0  0  0
    1.1364    7.6205   -2.2144 H   0  0  0  0  0  0  0  0  0  0  0  0
   -0.9990    7.2500   -1.5350 H   0  0  0  0  0  0  0  0  0  0  0  0
    3.5693    9.7987   -1.0559 H   0  0  0  0  0  0  0  0  0  0  0  0
    2.9918    8.7667   -2.4080 H   0  0  0  0  0  0  0  0  0  0  0  0
    2.6383   10.5278   -2.4080 H   0  0  0  0  0  0  0  0  0  0  0  0
    1.5330    9.1733    1.1600 H   0  0  0  0  0  0  0  0  0  0  0  0
    1.3091    7.6201    0.2860 H   0  0  0  0  0  0  0  0  0  0  0  0
    2.9137    8.4275    0.2860 H   0  0  0  0  0  0  0  0  0  0  0  0
   -2.1662   12.5297   -0.1172 H   0  0  0  0  0  0  0  0  0  0  0  0
   -2.7439   13.3382   -1.6136 H   0  0  0  0  0  0  0  0  0  0  0  0
   -2.4253   11.5704   -1.6136 H   0  0  0  0  0  0  0  0  0  0  0  0
   -0.7935   12.9581   -3.8062 H   0  0  0  0  0  0  0  0  0  0  0  0
   -1.5381   14.3430   -2.8254 H   0  0  0  0  0  0  0  0  0  0  0  0
    1.3796   13.9460   -3.5428 H   0  0  0  0  0  0  0  0  0  0  0  0
    0.2489   15.2447   -4.0924 H   0  0  0  0  0  0  0  0  0  0  0  0
   -0.4535   16.4377   -0.6340 H   0  0  0  0  0  0  0  0  0  0  0  0
   -0.1601   17.3438   -2.1570 H   0  0  0  0  0  0  0  0  0  0  0  0
   -1.2504   15.9162   -2.1570 H   0  0  0  0  0  0  0  0  0  0  0  0
  1  2  1  0
  2  3  1  0
  3  4  1  0
  4  5  1  0
  5  6  1  0
  6  7  1  0
  7  8  1  0
  7  9  1  0
  2 10  1  0
 10 11  1  0
 11 12  1  0
 12 13  1  0
 13 14  1  6
 13 15  1  0
 15 16  1  0
 16 17  1  0
 17 18  2  0
 18 19  1  0
 19 20  1  0
 20 21  1  0
 21 22  1  0
 22 23  1  0
 22 24  1  0
 24 25  1  0
 24 26  1  0
 19 27  1  0
 27 28  1  1
 27 29  1  0
 29 30  1  0
 30 31  1  0
 31 32  1  1
  7  5  1  0
 31 10  1  0
 31 13  1  0
 27 15  1  0
 24 18  1  0
  1 33  1  0
  1 34  1  0
  1 35  1  0
  2 36  1  6
  3 37  1  0
  3 38  1  0
  4 39  1  0
  4 40  1  0
  5 41  1  6
  8 42  1  0
  8 43  1  0
  8 44  1  0
  9 45  1  0
  9 46  1  0
  9 47  1  0
 10 48  1  6
 11 49  1  0
 11 50  1  0
 12 51  1  0
 12 52  1  0
 14 53  1  0
 14 54  1  0
 14 55  1  0
 15 56  1  1
 16 57  1  0
 16 58  1  0
 17 59  1  0
 19 60  1  6
 20 61  1  0
 20 62  1  0
 21 63  1  0
 21 64  1  0
 22 65  1  6
 23 66  1  0
 25 67  1  0
 25 68  1  0
 25 69  1  0
 26 70  1  0
 26 71  1  0
 26 72  1  0
 28 73  1  0
 28 74  1  0
 28 75  1  0
 29 76  1  0
 29 77  1  0
 30 78  1  0
 30 79  1  0
 32 80  1  0
 32 81  1  0
 32 82  1  0
M  END
>  <meeko>  (12) 
{"is_sidechain": [false], "intermolecular_energy": 2.731, "internal_energy": -0.839}

$$$$
EPH_relaxed_0001_pdb2pqr_Repair_217_r2_0001_out
     RDKit          3D

 82 86  0  0  0  0  0  0  0  0999 V2000
    1.4460   10.8300   -4.8220 C   0  0  0  0  0  0  0  0  0  0  0  0
    0.7950   10.6450   -3.4480 C   0  0  2  0  0  0  0  0  0  0  0  0
   -0.3120    9.5720   -3.4700 C   0  0  0  0  0  0  0  0  0  0  0  0
   -0.1310    8.4800   -2.4120 C   0  0  0  0  0  0  0  0  0  0  0  0
    0.0860    9.0600   -1.0480 C   0  0  2  0  0  0  0  0  0  0  0  0
   -0.2320    8.1770    0.0360 O   0  0  0  0  0  0  0  0  0  0  0  0
   -1.0410    9.3590   -0.0770 C   0  0  0  0  0  0  0  0  0  0  0  0
   -2.4690    9.0880   -0.4320 C   0  0  0  0  0  0  0  0  0  0  0  0
   -0.8020   10.3600    1.0110 C   0  0  0  0  0  0  0  0  0  0  0  0
    0.2250   11.9720   -2.9610 C   0  0  1  0  0  0  0  0  0  0  0  0
   -1.1080   11.8000   -2.1850 C   0  0  0  0  0  0  0  0  0  0  0  0
   -1.1180   12.8770   -1.0690 C   0  0  0  0  0  0  0  0  0  0  0  0
    0.0360   13.8360   -1.4430 C   0  0  1  0  0  0  0  0  0  0  0  0
   -0.5620   14.7790   -2.5330 C   0  0  0  0  0  0  0  0  0  0  0  0
    0.6710   14.6450   -0.2650 C   0  0  2  0  0  0  0  0  0  0  0  0
   -0.2870   15.6120    0.4520 C   0  0  0  0  0  0  0  0  0  0  0  0
   -0.3290   16.9970   -0.1040 C   0  0  0  0  0  0  0  0  0  0  0  0
    0.5720   17.5280   -0.9510 C   0  0  0  0  0  0  0  0  0  0  0  0
    1.8280   16.7450   -1.3570 C   0  0  1  0  0  0  0  0  0  0  0  0
    3.0700   17.6680   -1.2530 C   0  0  0  0  0  0  0  0  0  0  0  0
    2.9070   18.9610   -2.0460 C   0  0  0  0  0  0  0  0  0  0  0  0
    1.6810   19.7390   -1.5740 C   0  0  2  0  0  0  0  0  0  0  0  0
    1.9110   20.1940   -0.2370 O   0  0  0  0  0  0  0  0  0  0  0  0
    0.3700   18.9070   -1.6250 C   0  0  0  0  0  0  0  0  0  0  0  0
   -0.0400   18.6720   -3.1000 C   0  0  0  0  0  0  0  0  0  0  0  0
   -0.7620   19.7600   -0.9910 C   0  0  0  0  0  0  0  0  0  0  0  0
    2.0410   15.3500   -0.6270 C   0  0  1  0  0  0  0  0  0  0  0  0
    2.8000   15.5640    0.7180 C   0  0  0  0  0  0  0  0  0  0  0  0
    2.9650   14.4390   -1.5180 C   0  0  0  0  0  0  0  0  0  0  0  0
    2.2670   13.5730   -2.5850 C   0  0  0  0  0  0  0  0  0  0  0  0
    1.0910   12.8010   -1.9800 C   0  0  2  0  0  0  0  0  0  0  0  0
    1.6650   11.8270   -0.8950 C   0  0  0  0  0  0  0  0  0  0  0  0
    2.4968   11.1286   -4.6927 H   0  0  0  0  0  0  0  0  0  0  0  0
    1.3999    9.8832   -5.3801 H   0  0  0  0  0  0  0  0  0  0  0  0
    0.9089   11.6111   -5.3801 H   0  0  0  0  0  0  0  0  0  0  0  0
    1.5760   10.2989   -2.7550 H   0  0  0  0  0  0  0  0  0  0  0  0
   -1.2790   10.0669   -3.2966 H   0  0  0  0  0  0  0  0  0  0  0  0
   -0.2632    9.0795   -4.4524 H   0  0  0  0  0  0  0  0  0  0  0  0
   -1.0326    7.8501   -2.3921 H   0  0  0  0  0  0  0  0  0  0  0  0
    0.7575    7.8887   -2.6783 H   0  0  0  0  0  0  0  0  0  0  0  0
    0.9249    9.6695   -1.4151 H   0  0  0  0  0  0  0  0  0  0  0  0
   -3.0607    8.9757    0.4885 H   0  0  0  0  0  0  0  0  0  0  0  0
   -2.8655    9.9269   -1.0227 H   0  0  0  0  0  0  0  0  0  0  0  0
   -2.5306    8.1621   -1.0227 H   0  0  0  0  0  0  0  0  0  0  0  0
   -0.9185    9.8722    1.9900 H   0  0  0  0  0  0  0  0  0  0  0  0
    0.2176   10.7629    0.9210 H   0  0  0  0  0  0  0  0  0  0  0  0
   -1.5296   11.1801    0.9210 H   0  0  0  0  0  0  0  0  0  0  0  0
    0.1374   12.4993   -3.9224 H   0  0  0  0  0  0  0  0  0  0  0  0
   -1.9623   11.9480   -2.8620 H   0  0  0  0  0  0  0  0  0  0  0  0
   -1.1896   10.7891   -1.7591 H   0  0  0  0  0  0  0  0  0  0  0  0
   -2.0788   13.4124   -1.0545 H   0  0  0  0  0  0  0  0  0  0  0  0
   -0.9904   12.4411   -0.0671 H   0  0  0  0  0  0  0  0  0  0  0  0
   -1.0905   15.6124   -2.0470 H   0  0  0  0  0  0  0  0  0  0  0  0
    0.2500   15.1757   -3.1602 H   0  0  0  0  0  0  0  0  0  0  0  0
   -1.2670   14.2137   -3.1602 H   0  0  0  0  0  0  0  0  0  0  0  0
    0.9022   13.8563    0.4661 H   0  0  0  0  0  0  0  0  0  0  0  0
   -1.3016   15.1912    0.3932 H   0  0  0  0  0  0  0  0  0  0  0  0
    0.0911   15.7082    1.4805 H   0  0  0  0  0  0  0  0  0  0  0  0
   -1.1678   17.6380    0.2050 H   0  0  0  0  0  0  0  0  0  0  0  0
    1.6738   16.4442   -2.4038 H   0  0  0  0  0  0  0  0  0  0  0  0
    3.2331   17.9215   -0.1951 H   0  0  0  0  0  0  0  0  0  0  0  0
    3.9268   17.1231   -1.6760 H   0  0  0  0  0  0  0  0  0  0  0  0
    3.8035   19.5834   -1.9082 H   0  0  0  0  0  0  0  0  0  0  0  0
    2.7747   18.7074   -3.1082 H   0  0  0  0  0  0  0  0  0  0  0  0
    1.5416   20.5849   -2.2632 H   0  0  0  0  0  0  0  0  0  0  0  0
    2.6370   19.6630    0.1340 H   0  0  0  0  0  0  0  0  0  0  0  0
   -0.9939   18.1252   -3.1328 H   0  0  0  0  0  0  0  0  0  0  0  0
   -0.1553   19.6412   -3.6074 H   0  0  0  0  0  0  0  0  0  0  0  0
    0.7380   18.0827   -3.6074 H   0  0  0  0  0  0  0  0  0  0  0  0
   -0.6911   19.7066    0.1054 H   0  0  0  0  0  0  0  0  0  0  0  0
   -0.6579   20.8061   -1.3146 H   0  0  0  0  0  0  0  0  0  0  0  0
   -1.7389   19.3716   -1.3146 H   0  0  0  0  0  0  0  0  0  0  0  0
    2.1174   15.3715    1.5589 H   0  0  0  0  0  0  0  0  0  0  0  0
    3.6528   14.8713    0.7720 H   0  0  0  0  0  0  0  0  0  0  0  0
    3.1653   16.6002    0.7720 H   0  0  0  0  0  0  0  0  0  0  0  0
    3.6785   15.0957   -2.0372 H   0  0  0  0  0  0  0  0  0  0  0  0
    3.4217   13.7223   -0.8196 H   0  0  0  0  0  0  0  0  0  0  0  0
    1.8944   14.2240   -3.3896 H   0  0  0  0  0  0  0  0  0  0  0  0
    2.9950   12.8498   -2.9813 H   0  0  0  0  0  0  0  0  0  0  0  0
    1.4347   12.2178    0.1071 H   0  0  0  0  0  0  0  0  0  0  0  0
    1.2078   10.8337   -1.0152 H   0  0  0  0  0  0  0  0  0  0  0  0
    2.7554   11.7458   -1.0152 H   0  0  0  0  0  0  0  0  0  0  0  0
  1  2  1  0
  2  3  1  0
  3  4  1  0
  4  5  1  0
  5  6  1  0
  6  7  1  0
  7  8  1  0
  7  9  1  0
  2 10  1  0
 10 11  1  0
 11 12  1  0
 12 13  1  0
 13 14  1  6
 13 15  1  0
 15 16  1  0
 16 17  1  0
 17 18  2  0
 18 19  1  0
 19 20  1  0
 20 21  1  0
 21 22  1  0
 22 23  1  0
 22 24  1  0
 24 25  1  0
 24 26  1  0
 19 27  1  0
 27 28  1  1
 27 29  1  0
 29 30  1  0
 30 31  1  0
 31 32  1  1
  7  5  1  0
 31 10  1  0
 31 13  1  0
 27 15  1  0
 24 18  1  0
  1 33  1  0
  1 34  1  0
  1 35  1  0
  2 36  1  1
  3 37  1  0
  3 38  1  0
  4 39  1  0
  4 40  1  0
  5 41  1  6
  8 42  1  0
  8 43  1  0
  8 44  1  0
  9 45  1  0
  9 46  1  0
  9 47  1  0
 10 48  1  6
 11 49  1  0
 11 50  1  0
 12 51  1  0
 12 52  1  0
 14 53  1  0
 14 54  1  0
 14 55  1  0
 15 56  1  1
 16 57  1  0
 16 58  1  0
 17 59  1  0
 19 60  1  6
 20 61  1  0
 20 62  1  0
 21 63  1  0
 21 64  1  0
 22 65  1  6
 23 66  1  0
 25 67  1  0
 25 68  1  0
 25 69  1  0
 26 70  1  0
 26 71  1  0
 26 72  1  0
 28 73  1  0
 28 74  1  0
 28 75  1  0
 29 76  1  0
 29 77  1  0
 30 78  1  0
 30 79  1  0
 32 80  1  0
 32 81  1  0
 32 82  1  0
M  END
>  <meeko>  (13) 
{"is_sidechain": [false], "intermolecular_energy": 2.731, "internal_energy": -0.839}

$$$$
EPH_relaxed_0001_pdb2pqr_Repair_217_r2_0001_out
     RDKit          3D

 82 86  0  0  0  0  0  0  0  0999 V2000
    2.9530   18.4020   -3.5960 C   0  0  0  0  0  0  0  0  0  0  0  0
    2.0800   18.1270   -2.3690 C   0  0  2  0  0  0  0  0  0  0  0  0
    2.2860   19.1810   -1.2620 C   0  0  0  0  0  0  0  0  0  0  0  0
    2.4560   18.5800    0.1360 C   0  0  0  0  0  0  0  0  0  0  0  0
    2.9360   19.6010    1.1230 C   0  0  2  0  0  0  0  0  0  0  0  0
    4.2910   20.0290    0.9310 O   0  0  0  0  0  0  0  0  0  0  0  0
    4.0160   19.3250    2.1530 C   0  0  0  0  0  0  0  0  0  0  0  0
    4.6810   17.9880    2.2480 C   0  0  0  0  0  0  0  0  0  0  0  0
    4.0780   20.1900    3.3740 C   0  0  0  0  0  0  0  0  0  0  0  0
    2.3730   16.7350   -1.8230 C   0  0  1  0  0  0  0  0  0  0  0  0
    3.0870   16.7710   -0.4450 C   0  0  0  0  0  0  0  0  0  0  0  0
    2.5620   15.5560    0.3630 C   0  0  0  0  0  0  0  0  0  0  0  0
    1.8270   14.6830   -0.6800 C   0  0  1  0  0  0  0  0  0  0  0  0
    2.9560   13.8780   -1.3970 C   0  0  0  0  0  0  0  0  0  0  0  0
    0.7080   13.7410   -0.1270 C   0  0  2  0  0  0  0  0  0  0  0  0
    1.1910   12.6640    0.8610 C   0  0  0  0  0  0  0  0  0  0  0  0
    1.5900   11.3650    0.2440 C   0  0  0  0  0  0  0  0  0  0  0  0
    1.2960   10.9720   -1.0100 C   0  0  0  0  0  0  0  0  0  0  0  0
    0.4060   11.8310   -1.9170 C   0  0  1  0  0  0  0  0  0  0  0  0
   -0.6580   10.9320   -2.6000 C   0  0  0  0  0  0  0  0  0  0  0  0
   -0.0370    9.7520   -3.3410 C   0  0  0  0  0  0  0  0  0  0  0  0
    0.7930    8.8890   -2.3940 C   0  0  2  0  0  0  0  0  0  0  0  0
   -0.0840    8.2680   -1.4490 O   0  0  0  0  0  0  0  0  0  0  0  0
    1.8920    9.6890   -1.6400 C   0  0  0  0  0  0  0  0  0  0  0  0
    3.0040   10.1070   -2.6330 C   0  0  0  0  0  0  0  0  0  0  0  0
    2.5610    8.7330   -0.6160 C   0  0  0  0  0  0  0  0  0  0  0  0
   -0.2290   13.1230   -1.2420 C   0  0  1  0  0  0  0  0  0  0  0  0
   -1.5710   12.7510   -0.5400 C   0  0  0  0  0  0  0  0  0  0  0  0
   -0.5890   14.1650   -2.3660 C   0  0  0  0  0  0  0  0  0  0  0  0
    0.5210   15.1470   -2.7850 C   0  0  0  0  0  0  0  0  0  0  0  0
    1.1630   15.8040   -1.5590 C   0  0  2  0  0  0  0  0  0  0  0  0
    0.0560   16.6400   -0.8300 C   0  0  0  0  0  0  0  0  0  0  0  0
    3.9550   18.7176   -3.2698 H   0  0  0  0  0  0  0  0  0  0  0  0
    3.0355   17.4863   -4.2000 H   0  0  0  0  0  0  0  0  0  0  0  0
    2.4958   19.1996   -4.2000 H   0  0  0  0  0  0  0  0  0  0  0  0
    1.0298   18.1862   -2.6907 H   0  0  0  0  0  0  0  0  0  0  0  0
    3.1874   19.7643   -1.5012 H   0  0  0  0  0  0  0  0  0  0  0  0
    1.3786   19.8023   -1.2367 H   0  0  0  0  0  0  0  0  0  0  0  0
    1.4869   18.1848    0.4745 H   0  0  0  0  0  0  0  0  0  0  0  0
    3.2085   17.7799    0.0764 H   0  0  0  0  0  0  0  0  0  0  0  0
    1.9258   20.0277    1.2089 H   0  0  0  0  0  0  0  0  0  0  0  0
    4.8146   17.7193    3.3063 H   0  0  0  0  0  0  0  0  0  0  0  0
    4.0545   17.2309    1.7538 H   0  0  0  0  0  0  0  0  0  0  0  0
    5.6628   18.0309    1.7538 H   0  0  0  0  0  0  0  0  0  0  0  0
    4.0327   19.5584    4.2735 H   0  0  0  0  0  0  0  0  0  0  0  0
    5.0193   20.7592    3.3727 H   0  0  0  0  0  0  0  0  0  0  0  0
    3.2276   20.8877    3.3727 H   0  0  0  0  0  0  0  0  0  0  0  0
    2.9798   16.3380   -2.6501 H   0  0  0  0  0  0  0  0  0  0  0  0
    4.1759   16.6938   -0.5805 H   0  0  0  0  0  0  0  0  0  0  0  0
    2.8811   17.7144    0.0819 H   0  0  0  0  0  0  0  0  0  0  0  0
    3.3967   15.0005    0.8155 H   0  0  0  0  0  0  0  0  0  0  0  0
    1.9049   15.8583    1.1917 H   0  0  0  0  0  0  0  0  0  0  0  0
    3.6090   13.4124   -0.6442 H   0  0  0  0  0  0  0  0  0  0  0  0
    2.5058   13.0959   -2.0260 H   0  0  0  0  0  0  0  0  0  0  0  0
    3.5487   14.5585   -2.0260 H   0  0  0  0  0  0  0  0  0  0  0  0
    0.0886   14.4324    0.4632 H   0  0  0  0  0  0  0  0  0  0  0  0
    2.0610   13.0647    1.4018 H   0  0  0  0  0  0  0  0  0  0  0  0
    0.3322   12.4407    1.5111 H   0  0  0  0  0  0  0  0  0  0  0  0
    2.1734   10.6701    0.8659 H   0  0  0  0  0  0  0  0  0  0  0  0
    1.0731   12.2630   -2.6775 H   0  0  0  0  0  0  0  0  0  0  0  0
   -1.3402   10.5448   -1.8289 H   0  0  0  0  0  0  0  0  0  0  0  0
   -1.1911   11.5478   -3.3393 H   0  0  0  0  0  0  0  0  0  0  0  0
   -0.8390    9.1386   -3.7775 H   0  0  0  0  0  0  0  0  0  0  0  0
    0.6226   10.1410   -4.1307 H   0  0  0  0  0  0  0  0  0  0  0  0
    1.3157    8.1379   -3.0045 H   0  0  0  0  0  0  0  0  0  0  0  0
   -0.8140    7.8630   -1.9460 H   0  0  0  0  0  0  0  0  0  0  0  0
    3.8899   10.4400   -2.0724 H   0  0  0  0  0  0  0  0  0  0  0  0
    3.2721    9.2483   -3.2660 H   0  0  0  0  0  0  0  0  0  0  0  0
    2.6400   10.9297   -3.2660 H   0  0  0  0  0  0  0  0  0  0  0  0
    2.3268    9.0677    0.4053 H   0  0  0  0  0  0  0  0  0  0  0  0
    2.1793    7.7120   -0.7639 H   0  0  0  0  0  0  0  0  0  0  0  0
    3.6510    8.7419   -0.7639 H   0  0  0  0  0  0  0  0  0  0  0  0
   -1.4367   12.7882    0.5511 H   0  0  0  0  0  0  0  0  0  0  0  0
   -2.3514   13.4667   -0.8380 H   0  0  0  0  0  0  0  0  0  0  0  0
   -1.8715   11.7357   -0.8380 H   0  0  0  0  0  0  0  0  0  0  0  0
   -0.8877   13.5992   -3.2608 H   0  0  0  0  0  0  0  0  0  0  0  0
   -1.3804   14.7939   -1.9322 H   0  0  0  0  0  0  0  0  0  0  0  0
    1.2930   14.5996   -3.3456 H   0  0  0  0  0  0  0  0  0  0  0  0
    0.0754   15.9336   -3.4116 H   0  0  0  0  0  0  0  0  0  0  0  0
    0.1820   16.5449    0.2586 H   0  0  0  0  0  0  0  0  0  0  0  0
    0.1458   17.6977   -1.1185 H   0  0  0  0  0  0  0  0  0  0  0  0
   -0.9368   16.2643   -1.1185 H   0  0  0  0  0  0  0  0  0  0  0  0
  1  2  1  0
  2  3  1  0
  3  4  1  0
  4  5  1  0
  5  6  1  0
  6  7  1  0
  7  8  1  0
  7  9  1  0
  2 10  1  0
 10 11  1  0
 11 12  1  0
 12 13  1  0
 13 14  1  6
 13 15  1  0
 15 16  1  0
 16 17  1  0
 17 18  2  0
 18 19  1  0
 19 20  1  0
 20 21  1  0
 21 22  1  0
 22 23  1  0
 22 24  1  0
 24 25  1  0
 24 26  1  0
 19 27  1  0
 27 28  1  1
 27 29  1  0
 29 30  1  0
 30 31  1  0
 31 32  1  1
  7  5  1  0
 31 10  1  0
 31 13  1  0
 27 15  1  0
 24 18  1  0
  1 33  1  0
  1 34  1  0
  1 35  1  0
  2 36  1  6
  3 37  1  0
  3 38  1  0
  4 39  1  0
  4 40  1  0
  5 41  1  1
  8 42  1  0
  8 43  1  0
  8 44  1  0
  9 45  1  0
  9 46  1  0
  9 47  1  0
 10 48  1  6
 11 49  1  0
 11 50  1  0
 12 51  1  0
 12 52  1  0
 14 53  1  0
 14 54  1  0
 14 55  1  0
 15 56  1  1
 16 57  1  0
 16 58  1  0
 17 59  1  0
 19 60  1  6
 20 61  1  0
 20 62  1  0
 21 63  1  0
 21 64  1  0
 22 65  1  6
 23 66  1  0
 25 67  1  0
 25 68  1  0
 25 69  1  0
 26 70  1  0
 26 71  1  0
 26 72  1  0
 28 73  1  0
 28 74  1  0
 28 75  1  0
 29 76  1  0
 29 77  1  0
 30 78  1  0
 30 79  1  0
 32 80  1  0
 32 81  1  0
 32 82  1  0
M  END
>  <meeko>  (14) 
{"is_sidechain": [false], "intermolecular_energy": 2.731, "internal_energy": -0.839}

$$$$
EPH_relaxed_0001_pdb2pqr_Repair_217_r2_0001_out
     RDKit          3D

 82 86  0  0  0  0  0  0  0  0999 V2000
    0.8900   14.8960   -2.5960 C   0  0  0  0  0  0  0  0  0  0  0  0
    1.1720   14.2230   -3.9420 C   0  0  2  0  0  0  0  0  0  0  0  0
    0.4850   14.9540   -5.1130 C   0  0  0  0  0  0  0  0  0  0  0  0
    1.0730   14.6100   -6.4840 C   0  0  0  0  0  0  0  0  0  0  0  0
    0.8220   15.6990   -7.4840 C   0  0  2  0  0  0  0  0  0  0  0  0
    0.3580   15.2430   -8.7610 O   0  0  0  0  0  0  0  0  0  0  0  0
    1.6450   15.8810   -8.7450 C   0  0  0  0  0  0  0  0  0  0  0  0
    2.7820   14.9660   -9.0750 C   0  0  0  0  0  0  0  0  0  0  0  0
    1.6590   17.2260   -9.4020 C   0  0  0  0  0  0  0  0  0  0  0  0
    0.7210   12.7680   -3.9000 C   0  0  1  0  0  0  0  0  0  0  0  0
    1.8530   11.7800   -4.2880 C   0  0  0  0  0  0  0  0  0  0  0  0
    1.6510   10.5080   -3.4250 C   0  0  0  0  0  0  0  0  0  0  0  0
    0.2370   10.6670   -2.8190 C   0  0  1  0  0  0  0  0  0  0  0  0
   -0.7370   10.2070   -3.9490 C   0  0  0  0  0  0  0  0  0  0  0  0
   -0.0310    9.9050   -1.4810 C   0  0  2  0  0  0  0  0  0  0  0  0
    0.0730    8.3730   -1.5700 C   0  0  0  0  0  0  0  0  0  0  0  0
   -1.1990    7.6660   -1.9000 C   0  0  0  0  0  0  0  0  0  0  0  0
   -2.4320    8.2030   -1.8380 C   0  0  0  0  0  0  0  0  0  0  0  0
   -2.6450    9.6260   -1.3060 C   0  0  1  0  0  0  0  0  0  0  0  0
   -3.8260    9.6320   -0.3010 C   0  0  0  0  0  0  0  0  0  0  0  0
   -5.0990    9.0330   -0.8910 C   0  0  0  0  0  0  0  0  0  0  0  0
   -4.8630    7.5980   -1.3540 C   0  0  2  0  0  0  0  0  0  0  0  0
   -4.6070    6.7800   -0.2090 O   0  0  0  0  0  0  0  0  0  0  0  0
   -3.6880    7.4660   -2.3640 C   0  0  0  0  0  0  0  0  0  0  0  0
   -4.0920    8.1000   -3.7180 C   0  0  0  0  0  0  0  0  0  0  0  0
   -3.4650    5.9550   -2.6420 C   0  0  0  0  0  0  0  0  0  0  0  0
   -1.3530   10.3530   -0.7340 C   0  0  1  0  0  0  0  0  0  0  0  0
   -1.1590    9.9880    0.7700 C   0  0  0  0  0  0  0  0  0  0  0  0
   -1.5720   11.9110   -0.7880 C   0  0  0  0  0  0  0  0  0  0  0  0
   -1.1770   12.6230   -2.0960 C   0  0  0  0  0  0  0  0  0  0  0  0
    0.2310   12.2140   -2.5390 C   0  0  2  0  0  0  0  0  0  0  0  0
    1.2360   12.6830   -1.4320 C   0  0  0  0  0  0  0  0  0  0  0  0
    1.1748   14.2163   -1.7794 H   0  0  0  0  0  0  0  0  0  0  0  0
    1.4747   15.8247   -2.5208 H   0  0  0  0  0  0  0  0  0  0  0  0
   -0.1821   15.1305   -2.5208 H   0  0  0  0  0  0  0  0  0  0  0  0
    2.2573   14.2713   -4.1146 H   0  0  0  0  0  0  0  0  0  0  0  0
   -0.5809   14.6823   -5.1144 H   0  0  0  0  0  0  0  0  0  0  0  0
    0.6438   16.0312   -4.9566 H   0  0  0  0  0  0  0  0  0  0  0  0
    2.1584   14.4646   -6.3801 H   0  0  0  0  0  0  0  0  0  0  0  0
    0.5854   13.6928   -6.8460 H   0  0  0  0  0  0  0  0  0  0  0  0
    0.5301   16.3977   -6.6861 H   0  0  0  0  0  0  0  0  0  0  0  0
    3.2388   14.5984   -8.1443 H   0  0  0  0  0  0  0  0  0  0  0  0
    2.4084   14.1138   -9.6616 H   0  0  0  0  0  0  0  0  0  0  0  0
    3.5346   15.5132   -9.6616 H   0  0  0  0  0  0  0  0  0  0  0  0
    1.6672   18.0106   -8.6311 H   0  0  0  0  0  0  0  0  0  0  0  0
    2.5582   17.3185  -10.0289 H   0  0  0  0  0  0  0  0  0  0  0  0
    0.7620   17.3372  -10.0289 H   0  0  0  0  0  0  0  0  0  0  0  0
   -0.1174   12.8147   -4.6106 H   0  0  0  0  0  0  0  0  0  0  0  0
    1.7858   11.5275   -5.3565 H   0  0  0  0  0  0  0  0  0  0  0  0
    2.8435   12.2246   -4.1109 H   0  0  0  0  0  0  0  0  0  0  0  0
    1.7067    9.6033   -4.0482 H   0  0  0  0  0  0  0  0  0  0  0  0
    2.4262   10.4015   -2.6519 H   0  0  0  0  0  0  0  0  0  0  0  0
   -1.6445    9.7784   -3.4988 H   0  0  0  0  0  0  0  0  0  0  0  0
   -1.0099   11.0714   -4.5722 H   0  0  0  0  0  0  0  0  0  0  0  0
   -0.2428    9.4471   -4.5722 H   0  0  0  0  0  0  0  0  0  0  0  0
    0.8143   10.2248   -0.8539 H   0  0  0  0  0  0  0  0  0  0  0  0
    0.8104    8.1270   -2.3483 H   0  0  0  0  0  0  0  0  0  0  0  0
    0.3609    8.0286   -0.5658 H   0  0  0  0  0  0  0  0  0  0  0  0
   -1.1227    6.6167   -2.2213 H   0  0  0  0  0  0  0  0  0  0  0  0
   -2.8969   10.2430   -2.1811 H   0  0  0  0  0  0  0  0  0  0  0  0
   -3.5383    9.0465    0.5847 H   0  0  0  0  0  0  0  0  0  0  0  0
   -4.0388   10.6797   -0.0420 H   0  0  0  0  0  0  0  0  0  0  0  0
   -5.8883    9.0388   -0.1248 H   0  0  0  0  0  0  0  0  0  0  0  0
   -5.4014    9.6368   -1.7593 H   0  0  0  0  0  0  0  0  0  0  0  0
   -5.7698    7.2685   -1.8823 H   0  0  0  0  0  0  0  0  0  0  0  0
   -3.8640    7.1760    0.2760 H   0  0  0  0  0  0  0  0  0  0  0  0
   -4.6749    9.0148   -3.5351 H   0  0  0  0  0  0  0  0  0  0  0  0
   -3.1866    8.3504   -4.2903 H   0  0  0  0  0  0  0  0  0  0  0  0
   -4.7015    7.3851   -4.2903 H   0  0  0  0  0  0  0  0  0  0  0  0
   -3.3852    5.4144   -1.6873 H   0  0  0  0  0  0  0  0  0  0  0  0
   -4.3144    5.5589   -3.2178 H   0  0  0  0  0  0  0  0  0  0  0  0
   -2.5374    5.8211   -3.2178 H   0  0  0  0  0  0  0  0  0  0  0  0
   -1.5827   10.7852    1.3984 H   0  0  0  0  0  0  0  0  0  0  0  0
   -1.6718    9.0392    0.9861 H   0  0  0  0  0  0  0  0  0  0  0  0
   -0.0856    9.8822    0.9861 H   0  0  0  0  0  0  0  0  0  0  0  0
   -2.6411   12.1030   -0.6143 H   0  0  0  0  0  0  0  0  0  0  0  0
   -0.8992   12.3230   -0.0214 H   0  0  0  0  0  0  0  0  0  0  0  0
   -1.8951   12.3523   -2.8841 H   0  0  0  0  0  0  0  0  0  0  0  0
   -1.1882   13.7090   -1.9215 H   0  0  0  0  0  0  0  0  0  0  0  0
    0.8072   12.4829   -0.4390 H   0  0  0  0  0  0  0  0  0  0  0  0
    2.1829   12.1338   -1.5400 H   0  0  0  0  0  0  0  0  0  0  0  0
    1.4233   13.7615   -1.5400 H   0  0  0  0  0  0  0  0  0  0  0  0
  1  2  1  0
  2  3  1  0
  3  4  1  0
  4  5  1  0
  5  6  1  0
  6  7  1  0
  7  8  1  0
  7  9  1  0
  2 10  1  0
 10 11  1  0
 11 12  1  0
 12 13  1  0
 13 14  1  6
 13 15  1  0
 15 16  1  0
 16 17  1  0
 17 18  2  0
 18 19  1  0
 19 20  1  0
 20 21  1  0
 21 22  1  0
 22 23  1  0
 22 24  1  0
 24 25  1  0
 24 26  1  0
 19 27  1  0
 27 28  1  1
 27 29  1  0
 29 30  1  0
 30 31  1  0
 31 32  1  1
  7  5  1  0
 31 10  1  0
 31 13  1  0
 27 15  1  0
 24 18  1  0
  1 33  1  0
  1 34  1  0
  1 35  1  0
  2 36  1  6
  3 37  1  0
  3 38  1  0
  4 39  1  0
  4 40  1  0
  5 41  1  1
  8 42  1  0
  8 43  1  0
  8 44  1  0
  9 45  1  0
  9 46  1  0
  9 47  1  0
 10 48  1  6
 11 49  1  0
 11 50  1  0
 12 51  1  0
 12 52  1  0
 14 53  1  0
 14 54  1  0
 14 55  1  0
 15 56  1  1
 16 57  1  0
 16 58  1  0
 17 59  1  0
 19 60  1  6
 20 61  1  0
 20 62  1  0
 21 63  1  0
 21 64  1  0
 22 65  1  6
 23 66  1  0
 25 67  1  0
 25 68  1  0
 25 69  1  0
 26 70  1  0
 26 71  1  0
 26 72  1  0
 28 73  1  0
 28 74  1  0
 28 75  1  0
 29 76  1  0
 29 77  1  0
 30 78  1  0
 30 79  1  0
 32 80  1  0
 32 81  1  0
 32 82  1  0
M  END
>  <meeko>  (15) 
{"is_sidechain": [false], "intermolecular_energy": 2.731, "internal_energy": -0.839}

$$$$
EPH_relaxed_0001_pdb2pqr_Repair_217_r2_0001_out
     RDKit          3D

 82 86  0  0  0  0  0  0  0  0999 V2000
   -1.7450   14.8090    0.4330 C   0  0  0  0  0  0  0  0  0  0  0  0
   -0.3970   15.5120    0.2510 C   0  0  2  0  0  0  0  0  0  0  0  0
   -0.4300   16.5440   -0.8930 C   0  0  0  0  0  0  0  0  0  0  0  0
   -0.0440   17.9600   -0.4570 C   0  0  0  0  0  0  0  0  0  0  0  0
    1.3860   18.0340   -0.0150 C   0  0  2  0  0  0  0  0  0  0  0  0
    2.0530   19.2590   -0.3470 O   0  0  0  0  0  0  0  0  0  0  0  0
    2.5580   18.0710   -0.9790 C   0  0  0  0  0  0  0  0  0  0  0  0
    2.3510   18.0350   -2.4610 C   0  0  0  0  0  0  0  0  0  0  0  0
    3.9060   17.6520   -0.4820 C   0  0  0  0  0  0  0  0  0  0  0  0
    0.6960   14.4810   -0.0080 C   0  0  1  0  0  0  0  0  0  0  0  0
    0.8210   13.4410    1.1370 C   0  0  0  0  0  0  0  0  0  0  0  0
    1.2010   12.0920    0.4770 C   0  0  0  0  0  0  0  0  0  0  0  0
    1.6050   12.4650   -0.9690 C   0  0  1  0  0  0  0  0  0  0  0  0
    3.0790   12.9690   -0.8560 C   0  0  0  0  0  0  0  0  0  0  0  0
    1.4620   11.3360   -2.0400 C   0  0  2  0  0  0  0  0  0  0  0  0
    2.3450   10.0980   -1.8050 C   0  0  0  0  0  0  0  0  0  0  0  0
    3.6940   10.1450   -2.4440 C   0  0  0  0  0  0  0  0  0  0  0  0
    4.0730   11.0060   -3.4060 C   0  0  0  0  0  0  0  0  0  0  0  0
    3.0720   11.9940   -4.0190 C   0  0  1  0  0  0  0  0  0  0  0  0
    3.2060   11.9740   -5.5650 C   0  0  0  0  0  0  0  0  0  0  0  0
    4.6360   12.2290   -6.0310 C   0  0  0  0  0  0  0  0  0  0  0  0
    5.5920   11.1920   -5.4470 C   0  0  2  0  0  0  0  0  0  0  0  0
    5.2810    9.9120   -6.0050 O   0  0  0  0  0  0  0  0  0  0  0  0
    5.5380   11.1140   -3.8960 C   0  0  0  0  0  0  0  0  0  0  0  0
    6.1610   12.3950   -3.2880 C   0  0  0  0  0  0  0  0  0  0  0  0
    6.4440    9.9350   -3.4460 C   0  0  0  0  0  0  0  0  0  0  0  0
    1.5660   11.8440   -3.5350 C   0  0  1  0  0  0  0  0  0  0  0  0
    0.8260   10.7900   -4.4160 C   0  0  0  0  0  0  0  0  0  0  0  0
    0.8160   13.2110   -3.7560 C   0  0  0  0  0  0  0  0  0  0  0  0
    0.8950   14.2390   -2.6110 C   0  0  0  0  0  0  0  0  0  0  0  0
    0.5490   13.5910   -1.2670 C   0  0  2  0  0  0  0  0  0  0  0  0
   -0.9350   13.0940   -1.3430 C   0  0  0  0  0  0  0  0  0  0  0  0
   -1.9585   14.6977    1.5063 H   0  0  0  0  0  0  0  0  0  0  0  0
   -2.5378   15.4085   -0.0383 H   0  0  0  0  0  0  0  0  0  0  0  0
   -1.7071   13.8158   -0.0383 H   0  0  0  0  0  0  0  0  0  0  0  0
   -0.1802   16.0579    1.1811 H   0  0  0  0  0  0  0  0  0  0  0  0
    0.2718   16.2181   -1.6748 H   0  0  0  0  0  0  0  0  0  0  0  0
   -1.4682   16.5908   -1.2533 H   0  0  0  0  0  0  0  0  0  0  0  0
   -0.1912   18.6463   -1.3040 H   0  0  0  0  0  0  0  0  0  0  0  0
   -0.6808   18.2419    0.3944 H   0  0  0  0  0  0  0  0  0  0  0  0
    1.1720   17.4070    0.8631 H   0  0  0  0  0  0  0  0  0  0  0  0
    1.2887   17.8502   -2.6785 H   0  0  0  0  0  0  0  0  0  0  0  0
    2.6522   18.9990   -2.8968 H   0  0  0  0  0  0  0  0  0  0  0  0
    2.9600   17.2293   -2.8968 H   0  0  0  0  0  0  0  0  0  0  0  0
    3.9074   17.6516    0.6180 H   0  0  0  0  0  0  0  0  0  0  0  0
    4.1341   16.6406   -0.8493 H   0  0  0  0  0  0  0  0  0  0  0  0
    4.6673   18.3559   -0.8493 H   0  0  0  0  0  0  0  0  0  0  0  0
    1.5598   15.1527   -0.1200 H   0  0  0  0  0  0  0  0  0  0  0  0
    1.6039   13.7499    1.8453 H   0  0  0  0  0  0  0  0  0  0  0  0
   -0.1221   13.3548    1.6965 H   0  0  0  0  0  0  0  0  0  0  0  0
    2.0436   11.6241    1.0071 H   0  0  0  0  0  0  0  0  0  0  0  0
    0.3747   11.3664    0.5052 H   0  0  0  0  0  0  0  0  0  0  0  0
    3.3540   13.0630    0.2049 H   0  0  0  0  0  0  0  0  0  0  0  0
    3.7511   12.2496   -1.3467 H   0  0  0  0  0  0  0  0  0  0  0  0
    3.1700   13.9493   -1.3467 H   0  0  0  0  0  0  0  0  0  0  0  0
    0.4263   10.9976   -1.8888 H   0  0  0  0  0  0  0  0  0  0  0  0
    2.4867    9.9828   -0.7203 H   0  0  0  0  0  0  0  0  0  0  0  0
    1.8163    9.2544   -2.2728 H   0  0  0  0  0  0  0  0  0  0  0  0
    4.4405    9.4143   -2.0992 H   0  0  0  0  0  0  0  0  0  0  0  0
    3.3481   12.9864   -3.6332 H   0  0  0  0  0  0  0  0  0  0  0  0
    2.8851   10.9887   -5.9341 H   0  0  0  0  0  0  0  0  0  0  0  0
    2.5751   12.7812   -5.9655 H   0  0  0  0  0  0  0  0  0  0  0  0
    4.6722   12.1742   -7.1290 H   0  0  0  0  0  0  0  0  0  0  0  0
    4.9457   13.2265   -5.6858 H   0  0  0  0  0  0  0  0  0  0  0  0
    6.6145   11.5012   -5.7095 H   0  0  0  0  0  0  0  0  0  0  0  0
    4.3310    9.7560   -5.8710 H   0  0  0  0  0  0  0  0  0  0  0  0
    6.1304   12.3321   -2.1902 H   0  0  0  0  0  0  0  0  0  0  0  0
    7.2052   12.4885   -3.6210 H   0  0  0  0  0  0  0  0  0  0  0  0
    5.5898   13.2741   -3.6210 H   0  0  0  0  0  0  0  0  0  0  0  0
    6.4748    9.8949   -2.3472 H   0  0  0  0  0  0  0  0  0  0  0  0
    6.0372    8.9904   -3.8361 H   0  0  0  0  0  0  0  0  0  0  0  0
    7.4615   10.0849   -3.8361 H   0  0  0  0  0  0  0  0  0  0  0  0
    0.3156   10.0631   -3.7671 H   0  0  0  0  0  0  0  0  0  0  0  0
    0.0853   11.2980   -5.0510 H   0  0  0  0  0  0  0  0  0  0  0  0
    1.5554   10.2659   -5.0510 H   0  0  0  0  0  0  0  0  0  0  0  0
    1.2395   13.6815   -4.6556 H   0  0  0  0  0  0  0  0  0  0  0  0
   -0.2489   12.9463   -3.8326 H   0  0  0  0  0  0  0  0  0  0  0  0
    1.9160   14.6454   -2.5622 H   0  0  0  0  0  0  0  0  0  0  0  0
    0.1699   15.0419   -2.8101 H   0  0  0  0  0  0  0  0  0  0  0  0
   -1.3300   12.9617   -0.3249 H   0  0  0  0  0  0  0  0  0  0  0  0
   -1.5437   13.8373   -1.8787 H   0  0  0  0  0  0  0  0  0  0  0  0
   -0.9732   12.1340   -1.8787 H   0  0  0  0  0  0  0  0  0  0  0  0
  1  2  1  0
  2  3  1  0
  3  4  1  0
  4  5  1  0
  5  6  1  0
  6  7  1  0
  7  8  1  0
  7  9  1  0
  2 10  1  0
 10 11  1  0
 11 12  1  0
 12 13  1  0
 13 14  1  1
 13 15  1  0
 15 16  1  0
 16 17  1  0
 17 18  2  0
 18 19  1  0
 19 20  1  0
 20 21  1  0
 21 22  1  0
 22 23  1  0
 22 24  1  0
 24 25  1  0
 24 26  1  0
 19 27  1  0
 27 28  1  6
 27 29  1  0
 29 30  1  0
 30 31  1  0
 31 32  1  6
  7  5  1  0
 31 10  1  0
 31 13  1  0
 27 15  1  0
 24 18  1  0
  1 33  1  0
  1 34  1  0
  1 35  1  0
  2 36  1  1
  3 37  1  0
  3 38  1  0
  4 39  1  0
  4 40  1  0
  5 41  1  1
  8 42  1  0
  8 43  1  0
  8 44  1  0
  9 45  1  0
  9 46  1  0
  9 47  1  0
 10 48  1  6
 11 49  1  0
 11 50  1  0
 12 51  1  0
 12 52  1  0
 14 53  1  0
 14 54  1  0
 14 55  1  0
 15 56  1  6
 16 57  1  0
 16 58  1  0
 17 59  1  0
 19 60  1  1
 20 61  1  0
 20 62  1  0
 21 63  1  0
 21 64  1  0
 22 65  1  1
 23 66  1  0
 25 67  1  0
 25 68  1  0
 25 69  1  0
 26 70  1  0
 26 71  1  0
 26 72  1  0
 28 73  1  0
 28 74  1  0
 28 75  1  0
 29 76  1  0
 29 77  1  0
 30 78  1  0
 30 79  1  0
 32 80  1  0
 32 81  1  0
 32 82  1  0
M  END
>  <meeko>  (16) 
{"is_sidechain": [false], "intermolecular_energy": 2.731, "internal_energy": -0.839}

$$$$
EPH_relaxed_0001_pdb2pqr_Repair_217_r2_0001_out
     RDKit          3D

 82 86  0  0  0  0  0  0  0  0999 V2000
   -2.3990    7.8150    0.0490 C   0  0  0  0  0  0  0  0  0  0  0  0
   -3.1000    9.1730   -0.0520 C   0  0  2  0  0  0  0  0  0  0  0  0
   -4.5620    9.0380   -0.5230 C   0  0  0  0  0  0  0  0  0  0  0  0
   -5.0190    7.5880   -0.7020 C   0  0  0  0  0  0  0  0  0  0  0  0
   -5.8660    7.4210   -1.9270 C   0  0  2  0  0  0  0  0  0  0  0  0
   -6.7920    8.4900   -2.1650 O   0  0  0  0  0  0  0  0  0  0  0  0
   -7.3670    7.2030   -1.8840 C   0  0  0  0  0  0  0  0  0  0  0  0
   -8.1090    7.1390   -0.5860 C   0  0  0  0  0  0  0  0  0  0  0  0
   -8.0320    6.5690   -3.0650 C   0  0  0  0  0  0  0  0  0  0  0  0
   -2.3300   10.0860   -0.9980 C   0  0  1  0  0  0  0  0  0  0  0  0
   -2.9730   11.4930   -1.1250 C   0  0  0  0  0  0  0  0  0  0  0  0
   -1.8080   12.5030   -1.2930 C   0  0  0  0  0  0  0  0  0  0  0  0
   -0.5700   11.6260   -1.5890 C   0  0  1  0  0  0  0  0  0  0  0  0
   -0.6690   11.2940   -3.1110 C   0  0  0  0  0  0  0  0  0  0  0  0
    0.8190   12.2430   -1.2220 C   0  0  2  0  0  0  0  0  0  0  0  0
    1.1850   13.5260   -1.9880 C   0  0  0  0  0  0  0  0  0  0  0  0
    1.9310   13.3160   -3.2640 C   0  0  0  0  0  0  0  0  0  0  0  0
    2.5400   12.1750   -3.6350 C   0  0  0  0  0  0  0  0  0  0  0  0
    2.5990   10.9690   -2.6880 C   0  0  1  0  0  0  0  0  0  0  0  0
    4.0410   10.3980   -2.6660 C   0  0  0  0  0  0  0  0  0  0  0  0
    4.5620   10.0690   -4.0610 C   0  0  0  0  0  0  0  0  0  0  0  0
    4.5430   11.3060   -4.9560 C   0  0  2  0  0  0  0  0  0  0  0  0
    5.4950   12.2510   -4.4570 O   0  0  0  0  0  0  0  0  0  0  0  0
    3.1420   11.9740   -5.0480 C   0  0  0  0  0  0  0  0  0  0  0  0
    2.1850   11.0670   -5.8600 C   0  0  0  0  0  0  0  0  0  0  0  0
    3.2920   13.2870   -5.8630 C   0  0  0  0  0  0  0  0  0  0  0  0
    2.0120   11.2040   -1.2300 C   0  0  1  0  0  0  0  0  0  0  0  0
    3.1180   11.7900   -0.3000 C   0  0  0  0  0  0  0  0  0  0  0  0
    1.6010    9.8160   -0.6110 C   0  0  0  0  0  0  0  0  0  0  0  0
    0.1750    9.3160   -0.9120 C   0  0  0  0  0  0  0  0  0  0  0  0
   -0.8590   10.4110   -0.6340 C   0  0  2  0  0  0  0  0  0  0  0  0
   -0.7990   10.7500    0.8940 C   0  0  0  0  0  0  0  0  0  0  0  0
   -2.2626    7.5507    1.1080 H   0  0  0  0  0  0  0  0  0  0  0  0
   -3.0136    7.0475   -0.4442 H   0  0  0  0  0  0  0  0  0  0  0  0
   -1.4174    7.8715   -0.4442 H   0  0  0  0  0  0  0  0  0  0  0  0
   -3.1175    9.6124    0.9563 H   0  0  0  0  0  0  0  0  0  0  0  0
   -5.2129    9.5178    0.2227 H   0  0  0  0  0  0  0  0  0  0  0  0
   -4.6279    9.5201   -1.5095 H   0  0  0  0  0  0  0  0  0  0  0  0
   -4.1323    6.9432   -0.7911 H   0  0  0  0  0  0  0  0  0  0  0  0
   -5.6234    7.3084    0.1735 H   0  0  0  0  0  0  0  0  0  0  0  0
   -5.0569    6.8816   -2.4412 H   0  0  0  0  0  0  0  0  0  0  0  0
   -7.3946    7.2006    0.2482 H   0  0  0  0  0  0  0  0  0  0  0  0
   -8.8161    7.9795   -0.5260 H   0  0  0  0  0  0  0  0  0  0  0  0
   -8.6617    6.1898   -0.5260 H   0  0  0  0  0  0  0  0  0  0  0  0
   -8.7874    5.8488   -2.7176 H   0  0  0  0  0  0  0  0  0  0  0  0
   -8.5185    7.3461   -3.6728 H   0  0  0  0  0  0  0  0  0  0  0  0
   -7.2790    6.0460   -3.6728 H   0  0  0  0  0  0  0  0  0  0  0  0
   -2.3648    9.4753   -1.9123 H   0  0  0  0  0  0  0  0  0  0  0  0
   -3.6353   11.5291   -2.0025 H   0  0  0  0  0  0  0  0  0  0  0  0
   -3.5788   11.7322   -0.2386 H   0  0  0  0  0  0  0  0  0  0  0  0
   -2.0067   13.1891   -2.1296 H   0  0  0  0  0  0  0  0  0  0  0  0
   -1.6697   13.1318   -0.4011 H   0  0  0  0  0  0  0  0  0  0  0  0
   -0.9812   10.2470   -3.2383 H   0  0  0  0  0  0  0  0  0  0  0  0
   -1.4085   11.9572   -3.5836 H   0  0  0  0  0  0  0  0  0  0  0  0
    0.3129   11.4439   -3.5836 H   0  0  0  0  0  0  0  0  0  0  0  0
    0.6721   12.5512   -0.1763 H   0  0  0  0  0  0  0  0  0  0  0  0
    0.2521   14.0591   -2.2235 H   0  0  0  0  0  0  0  0  0  0  0  0
    1.8612   14.0911   -1.3296 H   0  0  0  0  0  0  0  0  0  0  0  0
    1.9876   14.1661   -3.9598 H   0  0  0  0  0  0  0  0  0  0  0  0
    1.9085   10.2206   -3.1041 H   0  0  0  0  0  0  0  0  0  0  0  0
    4.7080   11.1427   -2.2072 H   0  0  0  0  0  0  0  0  0  0  0  0
    4.0203    9.4621   -2.0884 H   0  0  0  0  0  0  0  0  0  0  0  0
    5.5945    9.6979   -3.9815 H   0  0  0  0  0  0  0  0  0  0  0  0
    3.9113    9.3026   -4.5073 H   0  0  0  0  0  0  0  0  0  0  0  0
    4.8028   10.9807   -5.9742 H   0  0  0  0  0  0  0  0  0  0  0  0
    5.2860   12.4120   -3.5210 H   0  0  0  0  0  0  0  0  0  0  0  0
    1.5637   10.4781   -5.1692 H   0  0  0  0  0  0  0  0  0  0  0  0
    1.5379   11.6912   -6.4938 H   0  0  0  0  0  0  0  0  0  0  0  0
    2.7736   10.3874   -6.4938 H   0  0  0  0  0  0  0  0  0  0  0  0
    3.3892   14.1379   -5.1727 H   0  0  0  0  0  0  0  0  0  0  0  0
    4.1889   13.2247   -6.4968 H   0  0  0  0  0  0  0  0  0  0  0  0
    2.4042   13.4286   -6.4968 H   0  0  0  0  0  0  0  0  0  0  0  0
    2.8315   11.6382    0.7511 H   0  0  0  0  0  0  0  0  0  0  0  0
    4.0718   11.2790   -0.4975 H   0  0  0  0  0  0  0  0  0  0  0  0
    3.2309   12.8662   -0.4975 H   0  0  0  0  0  0  0  0  0  0  0  0
    2.3053    9.0609   -0.9901 H   0  0  0  0  0  0  0  0  0  0  0  0
    1.6292    9.9670    0.4782 H   0  0  0  0  0  0  0  0  0  0  0  0
    0.1124    9.0221   -1.9702 H   0  0  0  0  0  0  0  0  0  0  0  0
   -0.0404    8.4562   -0.2606 H   0  0  0  0  0  0  0  0  0  0  0  0
   -0.9613    9.8331    1.4796 H   0  0  0  0  0  0  0  0  0  0  0  0
    0.1876   11.1710    1.1377 H   0  0  0  0  0  0  0  0  0  0  0  0
   -1.5812   11.4840    1.1377 H   0  0  0  0  0  0  0  0  0  0  0  0
  1  2  1  0
  2  3  1  0
  3  4  1  0
  4  5  1  0
  5  6  1  0
  6  7  1  0
  7  8  1  0
  7  9  1  0
  2 10  1  0
 10 11  1  0
 11 12  1  0
 12 13  1  0
 13 14  1  6
 13 15  1  0
 15 16  1  0
 16 17  1  0
 17 18  2  0
 18 19  1  0
 19 20  1  0
 20 21  1  0
 21 22  1  0
 22 23  1  0
 22 24  1  0
 24 25  1  0
 24 26  1  0
 19 27  1  0
 27 28  1  1
 27 29  1  0
 29 30  1  0
 30 31  1  0
 31 32  1  1
  7  5  1  0
 31 10  1  0
 31 13  1  0
 27 15  1  0
 24 18  1  0
  1 33  1  0
  1 34  1  0
  1 35  1  0
  2 36  1  1
  3 37  1  0
  3 38  1  0
  4 39  1  0
  4 40  1  0
  5 41  1  6
  8 42  1  0
  8 43  1  0
  8 44  1  0
  9 45  1  0
  9 46  1  0
  9 47  1  0
 10 48  1  6
 11 49  1  0
 11 50  1  0
 12 51  1  0
 12 52  1  0
 14 53  1  0
 14 54  1  0
 14 55  1  0
 15 56  1  1
 16 57  1  0
 16 58  1  0
 17 59  1  0
 19 60  1  6
 20 61  1  0
 20 62  1  0
 21 63  1  0
 21 64  1  0
 22 65  1  6
 23 66  1  0
 25 67  1  0
 25 68  1  0
 25 69  1  0
 26 70  1  0
 26 71  1  0
 26 72  1  0
 28 73  1  0
 28 74  1  0
 28 75  1  0
 29 76  1  0
 29 77  1  0
 30 78  1  0
 30 79  1  0
 32 80  1  0
 32 81  1  0
 32 82  1  0
M  END
>  <meeko>  (17) 
{"is_sidechain": [false], "intermolecular_energy": 2.731, "internal_energy": -0.839}

$$$$
EPH_relaxed_0001_pdb2pqr_Repair_217_r2_0001_out
     RDKit          3D

 82 86  0  0  0  0  0  0  0  0999 V2000
    3.0960   14.8140   -7.5560 C   0  0  0  0  0  0  0  0  0  0  0  0
    1.5740   14.8720   -7.4000 C   0  0  2  0  0  0  0  0  0  0  0  0
    0.9700   16.1260   -8.0630 C   0  0  0  0  0  0  0  0  0  0  0  0
    1.8980   16.7910   -9.0830 C   0  0  0  0  0  0  0  0  0  0  0  0
    1.5590   16.3890  -10.4860 C   0  0  2  0  0  0  0  0  0  0  0  0
    0.9720   15.0870  -10.6100 O   0  0  0  0  0  0  0  0  0  0  0  0
    2.2580   15.2630  -11.2260 C   0  0  0  0  0  0  0  0  0  0  0  0
    3.3530   14.4700  -10.5850 C   0  0  0  0  0  0  0  0  0  0  0  0
    2.2160   15.2560  -12.7220 C   0  0  0  0  0  0  0  0  0  0  0  0
    1.2010   14.8320   -5.9230 C   0  0  1  0  0  0  0  0  0  0  0  0
   -0.0440   15.6990   -5.5980 C   0  0  0  0  0  0  0  0  0  0  0  0
   -0.8200   14.9640   -4.4740 C   0  0  0  0  0  0  0  0  0  0  0  0
    0.1630   13.8860   -3.9630 C   0  0  1  0  0  0  0  0  0  0  0  0
    1.1150   14.6420   -2.9840 C   0  0  0  0  0  0  0  0  0  0  0  0
   -0.4790   12.6290   -3.2890 C   0  0  2  0  0  0  0  0  0  0  0  0
   -1.2830   12.9160   -2.0090 C   0  0  0  0  0  0  0  0  0  0  0  0
   -0.5040   12.8510   -0.7370 C   0  0  0  0  0  0  0  0  0  0  0  0
    0.7160   12.3010   -0.5950 C   0  0  0  0  0  0  0  0  0  0  0  0
    1.3950   11.5770   -1.7650 C   0  0  1  0  0  0  0  0  0  0  0  0
    1.9750   10.2250   -1.2710 C   0  0  0  0  0  0  0  0  0  0  0  0
    2.9020   10.3900   -0.0700 C   0  0  0  0  0  0  0  0  0  0  0  0
    2.1740   11.0610    1.0920 C   0  0  2  0  0  0  0  0  0  0  0  0
    1.1580   10.1750    1.5720 O   0  0  0  0  0  0  0  0  0  0  0  0
    1.5390   12.4270    0.7110 C   0  0  0  0  0  0  0  0  0  0  0  0
    2.6570   13.4750    0.4820 C   0  0  0  0  0  0  0  0  0  0  0  0
    0.7180   12.9290    1.9290 C   0  0  0  0  0  0  0  0  0  0  0  0
    0.5220   11.4210   -3.0840 C   0  0  1  0  0  0  0  0  0  0  0  0
   -0.3490   10.1310   -2.9960 C   0  0  0  0  0  0  0  0  0  0  0  0
    1.4830   11.2250   -4.3160 C   0  0  0  0  0  0  0  0  0  0  0  0
    1.9880   12.5020   -5.0130 C   0  0  0  0  0  0  0  0  0  0  0  0
    0.8280   13.4540   -5.3200 C   0  0  2  0  0  0  0  0  0  0  0  0
   -0.1340   12.7290   -6.3210 C   0  0  0  0  0  0  0  0  0  0  0  0
    3.5661   14.7961   -6.5617 H   0  0  0  0  0  0  0  0  0  0  0  0
    3.3735   13.9046   -8.1092 H   0  0  0  0  0  0  0  0  0  0  0  0
    3.4419   15.6996   -8.1092 H   0  0  0  0  0  0  0  0  0  0  0  0
    1.1549   13.9936   -7.9127 H   0  0  0  0  0  0  0  0  0  0  0  0
    0.0419   15.8344   -8.5764 H   0  0  0  0  0  0  0  0  0  0  0  0
    0.7944   16.8596   -7.2624 H   0  0  0  0  0  0  0  0  0  0  0  0
    1.8030   17.8831   -8.9924 H   0  0  0  0  0  0  0  0  0  0  0  0
    2.9276   16.4658   -8.8726 H   0  0  0  0  0  0  0  0  0  0  0  0
    1.3494   17.4335  -10.7599 H   0  0  0  0  0  0  0  0  0  0  0  0
    3.2615   14.5363   -9.4908 H   0  0  0  0  0  0  0  0  0  0  0  0
    3.2745   13.4179  -10.8965 H   0  0  0  0  0  0  0  0  0  0  0  0
    4.3281   14.8728  -10.8965 H   0  0  0  0  0  0  0  0  0  0  0  0
    1.1831   15.0839  -13.0590 H   0  0  0  0  0  0  0  0  0  0  0  0
    2.5693   16.2254  -13.1033 H   0  0  0  0  0  0  0  0  0  0  0  0
    2.8646   14.4536  -13.1033 H   0  0  0  0  0  0  0  0  0  0  0  0
    2.1440   15.1913   -5.4852 H   0  0  0  0  0  0  0  0  0  0  0  0
    0.2681   16.6959   -5.2534 H   0  0  0  0  0  0  0  0  0  0  0  0
   -0.6742   15.8350   -6.4893 H   0  0  0  0  0  0  0  0  0  0  0  0
   -1.0863   15.6612   -3.6659 H   0  0  0  0  0  0  0  0  0  0  0  0
   -1.7648   14.5304   -4.8338 H   0  0  0  0  0  0  0  0  0  0  0  0
    0.8292   14.4151   -1.9463 H   0  0  0  0  0  0  0  0  0  0  0  0
    2.1519   14.3185   -3.1579 H   0  0  0  0  0  0  0  0  0  0  0  0
    1.0348   15.7252   -3.1579 H   0  0  0  0  0  0  0  0  0  0  0  0
   -1.2159   12.3081   -4.0401 H   0  0  0  0  0  0  0  0  0  0  0  0
   -1.7092   13.9264   -2.0950 H   0  0  0  0  0  0  0  0  0  0  0  0
   -2.0409   12.1216   -1.9419 H   0  0  0  0  0  0  0  0  0  0  0  0
   -0.9662   13.2896    0.1596 H   0  0  0  0  0  0  0  0  0  0  0  0
    2.2120   12.2346   -2.0968 H   0  0  0  0  0  0  0  0  0  0  0  0
    1.1412    9.5670   -0.9851 H   0  0  0  0  0  0  0  0  0  0  0  0
    2.5664    9.7951   -2.0928 H   0  0  0  0  0  0  0  0  0  0  0  0
    3.2557    9.3990    0.2507 H   0  0  0  0  0  0  0  0  0  0  0  0
    3.7510   11.0238   -0.3658 H   0  0  0  0  0  0  0  0  0  0  0  0
    2.9205   11.2699    1.8724 H   0  0  0  0  0  0  0  0  0  0  0  0
    1.4630    9.8080    2.4190 H   0  0  0  0  0  0  0  0  0  0  0  0
    3.0334   13.8278    1.4535 H   0  0  0  0  0  0  0  0  0  0  0  0
    3.4799   13.0153   -0.0850 H   0  0  0  0  0  0  0  0  0  0  0  0
    2.2514   14.3259   -0.0850 H   0  0  0  0  0  0  0  0  0  0  0  0
    1.2183   12.6231    2.8596 H   0  0  0  0  0  0  0  0  0  0  0  0
    0.6455   14.0261    1.8952 H   0  0  0  0  0  0  0  0  0  0  0  0
   -0.2916   12.4936    1.8952 H   0  0  0  0  0  0  0  0  0  0  0  0
   -0.5211    9.8761   -1.9399 H   0  0  0  0  0  0  0  0  0  0  0  0
   -1.3146   10.3059   -3.4930 H   0  0  0  0  0  0  0  0  0  0  0  0
    0.1741    9.3008   -3.4930 H   0  0  0  0  0  0  0  0  0  0  0  0
    2.3637   10.6668   -3.9656 H   0  0  0  0  0  0  0  0  0  0  0  0
    0.8780   10.7042   -5.0728 H   0  0  0  0  0  0  0  0  0  0  0  0
    2.7068   13.0113   -4.3543 H   0  0  0  0  0  0  0  0  0  0  0  0
    2.4688   12.2177   -5.9606 H   0  0  0  0  0  0  0  0  0  0  0  0
   -0.8885   12.1603   -5.7577 H   0  0  0  0  0  0  0  0  0  0  0  0
   -0.6351   13.4760   -6.9542 H   0  0  0  0  0  0  0  0  0  0  0  0
    0.4460   12.0415   -6.9542 H   0  0  0  0  0  0  0  0  0  0  0  0
  1  2  1  0
  2  3  1  0
  3  4  1  0
  4  5  1  0
  5  6  1  0
  6  7  1  0
  7  8  1  0
  7  9  1  0
  2 10  1  0
 10 11  1  0
 11 12  1  0
 12 13  1  0
 13 14  1  1
 13 15  1  0
 15 16  1  0
 16 17  1  0
 17 18  2  0
 18 19  1  0
 19 20  1  0
 20 21  1  0
 21 22  1  0
 22 23  1  0
 22 24  1  0
 24 25  1  0
 24 26  1  0
 19 27  1  0
 27 28  1  1
 27 29  1  0
 29 30  1  0
 30 31  1  0
 31 32  1  6
  7  5  1  0
 31 10  1  0
 31 13  1  0
 27 15  1  0
 24 18  1  0
  1 33  1  0
  1 34  1  0
  1 35  1  0
  2 36  1  6
  3 37  1  0
  3 38  1  0
  4 39  1  0
  4 40  1  0
  5 41  1  6
  8 42  1  0
  8 43  1  0
  8 44  1  0
  9 45  1  0
  9 46  1  0
  9 47  1  0
 10 48  1  1
 11 49  1  0
 11 50  1  0
 12 51  1  0
 12 52  1  0
 14 53  1  0
 14 54  1  0
 14 55  1  0
 15 56  1  6
 16 57  1  0
 16 58  1  0
 17 59  1  0
 19 60  1  6
 20 61  1  0
 20 62  1  0
 21 63  1  0
 21 64  1  0
 22 65  1  1
 23 66  1  0
 25 67  1  0
 25 68  1  0
 25 69  1  0
 26 70  1  0
 26 71  1  0
 26 72  1  0
 28 73  1  0
 28 74  1  0
 28 75  1  0
 29 76  1  0
 29 77  1  0
 30 78  1  0
 30 79  1  0
 32 80  1  0
 32 81  1  0
 32 82  1  0
M  END
>  <meeko>  (18) 
{"is_sidechain": [false], "intermolecular_energy": 2.731, "internal_energy": -0.839}

$$$$
EPH_relaxed_0001_pdb2pqr_Repair_217_r2_0001_out
     RDKit          3D

 82 86  0  0  0  0  0  0  0  0999 V2000
    0.8540   14.7530   -4.8980 C   0  0  0  0  0  0  0  0  0  0  0  0
    0.6010   14.2120   -3.4880 C   0  0  2  0  0  0  0  0  0  0  0  0
    1.8190   14.4060   -2.5630 C   0  0  0  0  0  0  0  0  0  0  0  0
    1.5940   15.4400   -1.4570 C   0  0  0  0  0  0  0  0  0  0  0  0
    1.1650   16.7640   -2.0150 C   0  0  2  0  0  0  0  0  0  0  0  0
    2.1500   17.4210   -2.8220 O   0  0  0  0  0  0  0  0  0  0  0  0
    1.7830   18.0860   -1.6020 C   0  0  0  0  0  0  0  0  0  0  0  0
    2.8830   18.1500   -0.5890 C   0  0  0  0  0  0  0  0  0  0  0  0
    0.9960   19.3410   -1.8130 C   0  0  0  0  0  0  0  0  0  0  0  0
    0.2300   12.7350   -3.5570 C   0  0  1  0  0  0  0  0  0  0  0  0
    1.4410   11.8300   -3.9080 C   0  0  0  0  0  0  0  0  0  0  0  0
    1.2480   10.5030   -3.1310 C   0  0  0  0  0  0  0  0  0  0  0  0
   -0.2140   10.5540   -2.6270 C   0  0  1  0  0  0  0  0  0  0  0  0
   -1.0750   10.1090   -3.8510 C   0  0  0  0  0  0  0  0  0  0  0  0
   -0.5370    9.7050   -1.3550 C   0  0  2  0  0  0  0  0  0  0  0  0
   -0.3420    8.1880   -1.5160 C   0  0  0  0  0  0  0  0  0  0  0  0
   -1.5450    7.4350   -1.9800 C   0  0  0  0  0  0  0  0  0  0  0  0
   -2.8060    7.9040   -1.9840 C   0  0  0  0  0  0  0  0  0  0  0  0
   -3.1370    9.2820   -1.3960 C   0  0  1  0  0  0  0  0  0  0  0  0
   -4.3880    9.1700   -0.4860 C   0  0  0  0  0  0  0  0  0  0  0  0
   -5.5790    8.5400   -1.2020 C   0  0  0  0  0  0  0  0  0  0  0  0
   -5.2290    7.1470   -1.7210 C   0  0  2  0  0  0  0  0  0  0  0  0
   -5.0130    6.2800   -0.6030 O   0  0  0  0  0  0  0  0  0  0  0  0
   -3.9770    7.1340   -2.6430 C   0  0  0  0  0  0  0  0  0  0  0  0
   -4.3150    7.8210   -3.9890 C   0  0  0  0  0  0  0  0  0  0  0  0
   -3.6500    5.6540   -2.9810 C   0  0  0  0  0  0  0  0  0  0  0  0
   -1.9330   10.0410   -0.6890 C   0  0  1  0  0  0  0  0  0  0  0  0
   -1.8310    9.6030    0.8040 C   0  0  0  0  0  0  0  0  0  0  0  0
   -2.2350   11.5860   -0.6790 C   0  0  0  0  0  0  0  0  0  0  0  0
   -1.7850   12.3910   -1.9130 C   0  0  0  0  0  0  0  0  0  0  0  0
   -0.3270   12.0800   -2.2670 C   0  0  2  0  0  0  0  0  0  0  0  0
    0.5660   12.5380   -1.0640 C   0  0  0  0  0  0  0  0  0  0  0  0
    1.3191   15.7476   -4.8311 H   0  0  0  0  0  0  0  0  0  0  0  0
    1.5259   14.0696   -5.4379 H   0  0  0  0  0  0  0  0  0  0  0  0
   -0.1013   14.8305   -5.4379 H   0  0  0  0  0  0  0  0  0  0  0  0
   -0.2335   14.7861   -3.0589 H   0  0  0  0  0  0  0  0  0  0  0  0
    2.0549   13.4401   -2.0925 H   0  0  0  0  0  0  0  0  0  0  0  0
    2.6420   14.7800   -3.1898 H   0  0  0  0  0  0  0  0  0  0  0  0
    0.8130   15.0700   -0.7765 H   0  0  0  0  0  0  0  0  0  0  0  0
    2.5452   15.5844   -0.9237 H   0  0  0  0  0  0  0  0  0  0  0  0
    0.1201   16.4257   -2.0765 H   0  0  0  0  0  0  0  0  0  0  0  0
    2.4518   18.1249    0.4226 H   0  0  0  0  0  0  0  0  0  0  0  0
    3.5550   17.2894   -0.7226 H   0  0  0  0  0  0  0  0  0  0  0  0
    3.4507   19.0827   -0.7226 H   0  0  0  0  0  0  0  0  0  0  0  0
    0.7255   19.7724   -0.8380 H   0  0  0  0  0  0  0  0  0  0  0  0
    1.6029   20.0637   -2.3781 H   0  0  0  0  0  0  0  0  0  0  0  0
    0.0811   19.1094   -2.3781 H   0  0  0  0  0  0  0  0  0  0  0  0
   -0.5549   12.7784   -4.3264 H   0  0  0  0  0  0  0  0  0  0  0  0
    1.4669   11.6349   -4.9902 H   0  0  0  0  0  0  0  0  0  0  0  0
    2.3892   12.3147   -3.6322 H   0  0  0  0  0  0  0  0  0  0  0  0
    1.3999    9.6390   -3.7946 H   0  0  0  0  0  0  0  0  0  0  0  0
    1.9692   10.3934   -2.3077 H   0  0  0  0  0  0  0  0  0  0  0  0
   -1.9995    9.6312   -3.4947 H   0  0  0  0  0  0  0  0  0  0  0  0
   -1.3284   10.9890   -4.4604 H   0  0  0  0  0  0  0  0  0  0  0  0
   -0.5037    9.3933   -4.4604 H   0  0  0  0  0  0  0  0  0  0  0  0
    0.2407   10.0324   -0.6493 H   0  0  0  0  0  0  0  0  0  0  0  0
    0.4637    8.0248   -2.2469 H   0  0  0  0  0  0  0  0  0  0  0  0
   -0.1113    7.8030   -0.5117 H   0  0  0  0  0  0  0  0  0  0  0  0
   -1.3870    6.4110   -2.3495 H   0  0  0  0  0  0  0  0  0  0  0  0
   -3.3577    9.9340   -2.2540 H   0  0  0  0  0  0  0  0  0  0  0  0
   -4.1343    8.5513    0.3874 H   0  0  0  0  0  0  0  0  0  0  0  0
   -4.6776   10.1892   -0.1903 H   0  0  0  0  0  0  0  0  0  0  0  0
   -6.4212    8.4611   -0.4989 H   0  0  0  0  0  0  0  0  0  0  0  0
   -5.8507    9.1756   -2.0577 H   0  0  0  0  0  0  0  0  0  0  0  0
   -6.0737    6.8007   -2.3346 H   0  0  0  0  0  0  0  0  0  0  0  0
   -4.1040    5.9390   -0.6670 H   0  0  0  0  0  0  0  0  0  0  0  0
   -4.7930    8.7925   -3.7949 H   0  0  0  0  0  0  0  0  0  0  0  0
   -3.3902    7.9757   -4.5641 H   0  0  0  0  0  0  0  0  0  0  0  0
   -5.0019    7.1827   -4.5641 H   0  0  0  0  0  0  0  0  0  0  0  0
   -3.5241    5.0841   -2.0486 H   0  0  0  0  0  0  0  0  0  0  0  0
   -4.4741    5.2210   -3.5669 H   0  0  0  0  0  0  0  0  0  0  0  0
   -2.7201    5.6085   -3.5669 H   0  0  0  0  0  0  0  0  0  0  0  0
   -2.0322   10.4671    1.4542 H   0  0  0  0  0  0  0  0  0  0  0  0
   -2.5691    8.8127    1.0055 H   0  0  0  0  0  0  0  0  0  0  0  0
   -0.8197    9.2201    1.0055 H   0  0  0  0  0  0  0  0  0  0  0  0
   -3.3232   11.7115   -0.5789 H   0  0  0  0  0  0  0  0  0  0  0  0
   -1.6449   11.9886    0.1575 H   0  0  0  0  0  0  0  0  0  0  0  0
   -2.4267   12.1293   -2.7673 H   0  0  0  0  0  0  0  0  0  0  0  0
   -1.8697   13.4633   -1.6830 H   0  0  0  0  0  0  0  0  0  0  0  0
    0.0664   12.2818   -0.1181 H   0  0  0  0  0  0  0  0  0  0  0  0
    1.5392   12.0277   -1.1146 H   0  0  0  0  0  0  0  0  0  0  0  0
    0.7194   13.6261   -1.1146 H   0  0  0  0  0  0  0  0  0  0  0  0
  1  2  1  0
  2  3  1  0
  3  4  1  0
  4  5  1  0
  5  6  1  0
  6  7  1  0
  7  8  1  0
  7  9  1  0
  2 10  1  0
 10 11  1  0
 11 12  1  0
 12 13  1  0
 13 14  1  6
 13 15  1  0
 15 16  1  0
 16 17  1  0
 17 18  2  0
 18 19  1  0
 19 20  1  0
 20 21  1  0
 21 22  1  0
 22 23  1  0
 22 24  1  0
 24 25  1  0
 24 26  1  0
 19 27  1  0
 27 28  1  1
 27 29  1  0
 29 30  1  0
 30 31  1  0
 31 32  1  1
  7  5  1  0
 31 10  1  0
 31 13  1  0
 27 15  1  0
 24 18  1  0
  1 33  1  0
  1 34  1  0
  1 35  1  0
  2 36  1  1
  3 37  1  0
  3 38  1  0
  4 39  1  0
  4 40  1  0
  5 41  1  6
  8 42  1  0
  8 43  1  0
  8 44  1  0
  9 45  1  0
  9 46  1  0
  9 47  1  0
 10 48  1  6
 11 49  1  0
 11 50  1  0
 12 51  1  0
 12 52  1  0
 14 53  1  0
 14 54  1  0
 14 55  1  0
 15 56  1  1
 16 57  1  0
 16 58  1  0
 17 59  1  0
 19 60  1  6
 20 61  1  0
 20 62  1  0
 21 63  1  0
 21 64  1  0
 22 65  1  6
 23 66  1  0
 25 67  1  0
 25 68  1  0
 25 69  1  0
 26 70  1  0
 26 71  1  0
 26 72  1  0
 28 73  1  0
 28 74  1  0
 28 75  1  0
 29 76  1  0
 29 77  1  0
 30 78  1  0
 30 79  1  0
 32 80  1  0
 32 81  1  0
 32 82  1  0
M  END
>  <meeko>  (19) 
{"is_sidechain": [false], "intermolecular_energy": 2.731, "internal_energy": -0.839}

$$$$
