EPH_relaxed_0001_pdb2pqr_Repair_287_r2_0001_out
     RDKit          3D

 82 86  0  0  0  0  0  0  0  0999 V2000
    4.5010   17.7150   -0.7190 C   0  0  0  0  0  0  0  0  0  0  0  0
    3.1260   18.2860   -0.3610 C   0  0  2  0  0  0  0  0  0  0  0  0
    3.0980   18.8830    1.0600 C   0  0  0  0  0  0  0  0  0  0  0  0
    4.4230   18.7420    1.8140 C   0  0  0  0  0  0  0  0  0  0  0  0
    4.3300   19.2880    3.2060 C   0  0  2  0  0  0  0  0  0  0  0  0
    5.3810   20.1940    3.5660 O   0  0  0  0  0  0  0  0  0  0  0  0
    5.3280   18.9610    4.3010 C   0  0  0  0  0  0  0  0  0  0  0  0
    6.4910   18.0530    4.0520 C   0  0  0  0  0  0  0  0  0  0  0  0
    4.9050   19.1280    5.7280 C   0  0  0  0  0  0  0  0  0  0  0  0
    2.0630   17.2030   -0.4930 C   0  0  1  0  0  0  0  0  0  0  0  0
    0.7200   17.7470   -1.0500 C   0  0  0  0  0  0  0  0  0  0  0  0
    0.1130   16.6250   -1.9300 C   0  0  0  0  0  0  0  0  0  0  0  0
    0.9460   15.3670   -1.5880 C   0  0  1  0  0  0  0  0  0  0  0  0
    0.3320   14.8290   -0.2580 C   0  0  0  0  0  0  0  0  0  0  0  0
    1.0040   14.2570   -2.6870 C   0  0  2  0  0  0  0  0  0  0  0  0
   -0.3500   13.6180   -3.0420 C   0  0  0  0  0  0  0  0  0  0  0  0
   -0.7150   12.4120   -2.2410 C   0  0  0  0  0  0  0  0  0  0  0  0
    0.1300   11.6960   -1.4770 C   0  0  0  0  0  0  0  0  0  0  0  0
    1.6290   12.0220   -1.4400 C   0  0  1  0  0  0  0  0  0  0  0  0
    2.4480   10.7120   -1.5830 C   0  0  0  0  0  0  0  0  0  0  0  0
    2.0540    9.6610   -0.5490 C   0  0  0  0  0  0  0  0  0  0  0  0
    0.5700    9.3210   -0.6560 C   0  0  2  0  0  0  0  0  0  0  0  0
    0.3360    8.6650   -1.9060 O   0  0  0  0  0  0  0  0  0  0  0  0
   -0.3540   10.5650   -0.5360 C   0  0  0  0  0  0  0  0  0  0  0  0
   -0.3260   11.0960    0.9180 C   0  0  0  0  0  0  0  0  0  0  0  0
   -1.8130   10.1030   -0.8010 C   0  0  0  0  0  0  0  0  0  0  0  0
    2.1150   13.1580   -2.4400 C   0  0  1  0  0  0  0  0  0  0  0  0
    2.4440   12.5360   -3.8320 C   0  0  0  0  0  0  0  0  0  0  0  0
    3.4590   13.7760   -1.9010 C   0  0  0  0  0  0  0  0  0  0  0  0
    3.3360   14.9480   -0.9090 C   0  0  0  0  0  0  0  0  0  0  0  0
    2.3710   16.0140   -1.4380 C   0  0  2  0  0  0  0  0  0  0  0  0
    2.9730   16.5900   -2.7640 C   0  0  0  0  0  0  0  0  0  0  0  0
    5.0542   17.4853    0.2036 H   0  0  0  0  0  0  0  0  0  0  0  0
    4.3738   16.7953   -1.3089 H   0  0  0  0  0  0  0  0  0  0  0  0
    5.0627   18.4542   -1.3089 H   0  0  0  0  0  0  0  0  0  0  0  0
    2.9127   19.1029   -1.0661 H   0  0  0  0  0  0  0  0  0  0  0  0
    2.8550   19.9530    0.9822 H   0  0  0  0  0  0  0  0  0  0  0  0
    2.3431   18.3210    1.6295 H   0  0  0  0  0  0  0  0  0  0  0  0
    4.6916   17.6766    1.8663 H   0  0  0  0  0  0  0  0  0  0  0  0
    5.1887   19.3158    1.2714 H   0  0  0  0  0  0  0  0  0  0  0  0
    3.2312   19.2487    3.1730 H   0  0  0  0  0  0  0  0  0  0  0  0
    6.9120   17.7243    5.0136 H   0  0  0  0  0  0  0  0  0  0  0  0
    6.1553   17.1757    3.4797 H   0  0  0  0  0  0  0  0  0  0  0  0
    7.2607   18.5915    3.4797 H   0  0  0  0  0  0  0  0  0  0  0  0
    5.7205   18.8060    6.3923 H   0  0  0  0  0  0  0  0  0  0  0  0
    4.6717   20.1857    5.9199 H   0  0  0  0  0  0  0  0  0  0  0  0
    4.0121   18.5149    5.9199 H   0  0  0  0  0  0  0  0  0  0  0  0
    2.0258   16.8551    0.5499 H   0  0  0  0  0  0  0  0  0  0  0  0
    0.0375   17.9901   -0.2223 H   0  0  0  0  0  0  0  0  0  0  0  0
    0.8782   18.6652   -1.6347 H   0  0  0  0  0  0  0  0  0  0  0  0
   -0.9472   16.4679   -1.6823 H   0  0  0  0  0  0  0  0  0  0  0  0
    0.1486   16.8702   -3.0017 H   0  0  0  0  0  0  0  0  0  0  0  0
    0.8525   15.2851    0.5970 H   0  0  0  0  0  0  0  0  0  0  0  0
   -0.7366   15.0869   -0.2168 H   0  0  0  0  0  0  0  0  0  0  0  0
    0.4472   13.7358   -0.2168 H   0  0  0  0  0  0  0  0  0  0  0  0
    1.3088   14.8243   -3.5788 H   0  0  0  0  0  0  0  0  0  0  0  0
   -1.1333   14.3756   -2.8920 H   0  0  0  0  0  0  0  0  0  0  0  0
   -0.2617   13.2763   -4.0839 H   0  0  0  0  0  0  0  0  0  0  0  0
   -1.7633   12.0809   -2.2787 H   0  0  0  0  0  0  0  0  0  0  0  0
    1.8183   12.4740   -0.4552 H   0  0  0  0  0  0  0  0  0  0  0  0
    2.2794   10.2985   -2.5883 H   0  0  0  0  0  0  0  0  0  0  0  0
    3.5072   10.9604   -1.4204 H   0  0  0  0  0  0  0  0  0  0  0  0
    2.6455    8.7493   -0.7189 H   0  0  0  0  0  0  0  0  0  0  0  0
    2.2504   10.0650    0.4551 H   0  0  0  0  0  0  0  0  0  0  0  0
    0.3204    8.6634    0.1897 H   0  0  0  0  0  0  0  0  0  0  0  0
    0.5650    9.2910   -2.6140 H   0  0  0  0  0  0  0  0  0  0  0  0
   -0.3707   10.2491    1.6186 H   0  0  0  0  0  0  0  0  0  0  0  0
    0.6032   11.6608    1.0843 H   0  0  0  0  0  0  0  0  0  0  0  0
   -1.1906   11.7554    1.0843 H   0  0  0  0  0  0  0  0  0  0  0  0
   -2.3261    9.9405    0.1583 H   0  0  0  0  0  0  0  0  0  0  0  0
   -2.3442   10.8769   -1.3745 H   0  0  0  0  0  0  0  0  0  0  0  0
   -1.8020    9.1644   -1.3745 H   0  0  0  0  0  0  0  0  0  0  0  0
    2.9541   11.5716   -3.6914 H   0  0  0  0  0  0  0  0  0  0  0  0
    1.5110   12.3789   -4.3932 H   0  0  0  0  0  0  0  0  0  0  0  0
    3.0989   13.2188   -4.3932 H   0  0  0  0  0  0  0  0  0  0  0  0
    4.0170   12.9721   -1.3987 H   0  0  0  0  0  0  0  0  0  0  0  0
    3.9565   14.1992   -2.7861 H   0  0  0  0  0  0  0  0  0  0  0  0
    2.9606   14.5679    0.0526 H   0  0  0  0  0  0  0  0  0  0  0  0
    4.3283   15.4052   -0.7808 H   0  0  0  0  0  0  0  0  0  0  0  0
    3.7484   17.3319   -2.5227 H   0  0  0  0  0  0  0  0  0  0  0  0
    3.4176   15.7724   -3.3503 H   0  0  0  0  0  0  0  0  0  0  0  0
    2.1758   17.0703   -3.3503 H   0  0  0  0  0  0  0  0  0  0  0  0
  1  2  1  0
  2  3  1  0
  3  4  1  0
  4  5  1  0
  5  6  1  0
  6  7  1  0
  7  8  1  0
  7  9  1  0
  2 10  1  0
 10 11  1  0
 11 12  1  0
 12 13  1  0
 13 14  1  1
 13 15  1  0
 15 16  1  0
 16 17  1  0
 17 18  2  0
 18 19  1  0
 19 20  1  0
 20 21  1  0
 21 22  1  0
 22 23  1  0
 22 24  1  0
 24 25  1  0
 24 26  1  0
 19 27  1  0
 27 28  1  6
 27 29  1  0
 29 30  1  0
 30 31  1  0
 31 32  1  6
  7  5  1  0
 31 10  1  0
 31 13  1  0
 27 15  1  0
 24 18  1  0
  1 33  1  0
  1 34  1  0
  1 35  1  0
  2 36  1  6
  3 37  1  0
  3 38  1  0
  4 39  1  0
  4 40  1  0
  5 41  1  1
  8 42  1  0
  8 43  1  0
  8 44  1  0
  9 45  1  0
  9 46  1  0
  9 47  1  0
 10 48  1  1
 11 49  1  0
 11 50  1  0
 12 51  1  0
 12 52  1  0
 14 53  1  0
 14 54  1  0
 14 55  1  0
 15 56  1  6
 16 57  1  0
 16 58  1  0
 17 59  1  0
 19 60  1  1
 20 61  1  0
 20 62  1  0
 21 63  1  0
 21 64  1  0
 22 65  1  1
 23 66  1  0
 25 67  1  0
 25 68  1  0
 25 69  1  0
 26 70  1  0
 26 71  1  0
 26 72  1  0
 28 73  1  0
 28 74  1  0
 28 75  1  0
 29 76  1  0
 29 77  1  0
 30 78  1  0
 30 79  1  0
 32 80  1  0
 32 81  1  0
 32 82  1  0
M  END
>  <meeko>  (1) 
{"is_sidechain": [false], "intermolecular_energy": 2.731, "internal_energy": -0.839}

$$$$
EPH_relaxed_0001_pdb2pqr_Repair_287_r2_0001_out
     RDKit          3D

 82 86  0  0  0  0  0  0  0  0999 V2000
    3.8390   17.9900    0.5580 C   0  0  0  0  0  0  0  0  0  0  0  0
    2.9440   18.3690   -0.6250 C   0  0  2  0  0  0  0  0  0  0  0  0
    2.1990   19.6980   -0.3880 C   0  0  0  0  0  0  0  0  0  0  0  0
    1.1850   19.6400    0.7570 C   0  0  0  0  0  0  0  0  0  0  0  0
   -0.1470   20.1910    0.3460 C   0  0  2  0  0  0  0  0  0  0  0  0
   -1.1390   20.1940    1.3810 O   0  0  0  0  0  0  0  0  0  0  0  0
   -1.4070   19.3500    0.2500 C   0  0  0  0  0  0  0  0  0  0  0  0
   -1.3950   17.8870    0.5650 C   0  0  0  0  0  0  0  0  0  0  0  0
   -2.5280   19.8380   -0.6140 C   0  0  0  0  0  0  0  0  0  0  0  0
    1.9430   17.2530   -0.8980 C   0  0  1  0  0  0  0  0  0  0  0  0
    0.7920   17.6990   -1.8390 C   0  0  0  0  0  0  0  0  0  0  0  0
    0.4240   16.4700   -2.7090 C   0  0  0  0  0  0  0  0  0  0  0  0
    1.1330   15.2790   -2.0230 C   0  0  1  0  0  0  0  0  0  0  0  0
    0.1950   14.8810   -0.8400 C   0  0  0  0  0  0  0  0  0  0  0  0
    1.4650   14.0530   -2.9340 C   0  0  2  0  0  0  0  0  0  0  0  0
    0.2430   13.3460   -3.5470 C   0  0  0  0  0  0  0  0  0  0  0  0
   -0.3230   12.2310   -2.7320 C   0  0  0  0  0  0  0  0  0  0  0  0
    0.2930   11.6250   -1.7000 C   0  0  0  0  0  0  0  0  0  0  0  0
    1.7340   11.9890   -1.3200 C   0  0  1  0  0  0  0  0  0  0  0  0
    2.5540   10.6910   -1.0950 C   0  0  0  0  0  0  0  0  0  0  0  0
    1.9020    9.7550   -0.0830 C   0  0  0  0  0  0  0  0  0  0  0  0
    0.4930    9.3700   -0.5250 C   0  0  2  0  0  0  0  0  0  0  0  0
    0.5830    8.5720   -1.7090 O   0  0  0  0  0  0  0  0  0  0  0  0
   -0.4230   10.5970   -0.7900 C   0  0  0  0  0  0  0  0  0  0  0  0
   -0.7660   11.2910    0.5520 C   0  0  0  0  0  0  0  0  0  0  0  0
   -1.7680   10.0740   -1.3640 C   0  0  0  0  0  0  0  0  0  0  0  0
    2.4680   13.0150   -2.2860 C   0  0  1  0  0  0  0  0  0  0  0  0
    3.1390   12.2480   -3.4660 C   0  0  0  0  0  0  0  0  0  0  0  0
    3.6320   13.7220   -1.4970 C   0  0  0  0  0  0  0  0  0  0  0  0
    3.2660   14.9960   -0.7120 C   0  0  0  0  0  0  0  0  0  0  0  0
    2.4760   15.9720   -1.5890 C   0  0  2  0  0  0  0  0  0  0  0  0
    3.4020   16.4080   -2.7750 C   0  0  0  0  0  0  0  0  0  0  0  0
    3.3154   18.2117    1.4997 H   0  0  0  0  0  0  0  0  0  0  0  0
    4.0721   16.9160    0.5121 H   0  0  0  0  0  0  0  0  0  0  0  0
    4.7725   18.5700    0.5121 H   0  0  0  0  0  0  0  0  0  0  0  0
    3.5951   18.5073   -1.5008 H   0  0  0  0  0  0  0  0  0  0  0  0
    2.9415   20.4755   -0.1551 H   0  0  0  0  0  0  0  0  0  0  0  0
    1.6345   19.9179   -1.3061 H   0  0  0  0  0  0  0  0  0  0  0  0
    1.0571   18.5924    1.0673 H   0  0  0  0  0  0  0  0  0  0  0  0
    1.5686   20.2526    1.5862 H   0  0  0  0  0  0  0  0  0  0  0  0
    0.3318   20.8862   -0.3593 H   0  0  0  0  0  0  0  0  0  0  0  0
   -1.3939   17.7468    1.6560 H   0  0  0  0  0  0  0  0  0  0  0  0
   -2.2893   17.4120    0.1352 H   0  0  0  0  0  0  0  0  0  0  0  0
   -0.4930   17.4268    0.1352 H   0  0  0  0  0  0  0  0  0  0  0  0
   -3.3513   20.1964    0.0213 H   0  0  0  0  0  0  0  0  0  0  0  0
   -2.1697   20.6616   -1.2491 H   0  0  0  0  0  0  0  0  0  0  0  0
   -2.8867   19.0146   -1.2491 H   0  0  0  0  0  0  0  0  0  0  0  0
    1.6367   17.0246    0.1335 H   0  0  0  0  0  0  0  0  0  0  0  0
   -0.0786   18.0187   -1.2475 H   0  0  0  0  0  0  0  0  0  0  0  0
    1.1010   18.5484   -2.4659 H   0  0  0  0  0  0  0  0  0  0  0  0
   -0.6652   16.3171   -2.7239 H   0  0  0  0  0  0  0  0  0  0  0  0
    0.7351   16.5929   -3.7569 H   0  0  0  0  0  0  0  0  0  0  0  0
    0.6981   15.0945    0.1146 H   0  0  0  0  0  0  0  0  0  0  0  0
   -0.7378   15.4609   -0.9006 H   0  0  0  0  0  0  0  0  0  0  0  0
   -0.0362   13.8073   -0.9006 H   0  0  0  0  0  0  0  0  0  0  0  0
    1.9933   14.5226   -3.7768 H   0  0  0  0  0  0  0  0  0  0  0  0
   -0.5476   14.0972   -3.6911 H   0  0  0  0  0  0  0  0  0  0  0  0
    0.5935   12.8903   -4.4848 H   0  0  0  0  0  0  0  0  0  0  0  0
   -1.3291   11.8742   -2.9973 H   0  0  0  0  0  0  0  0  0  0  0  0
    1.6664   12.5555   -0.3795 H   0  0  0  0  0  0  0  0  0  0  0  0
    2.6475   10.1622   -2.0550 H   0  0  0  0  0  0  0  0  0  0  0  0
    3.5367   10.9821   -0.6955 H   0  0  0  0  0  0  0  0  0  0  0  0
    2.5117    8.8441    0.0098 H   0  0  0  0  0  0  0  0  0  0  0  0
    1.8368   10.2744    0.8844 H   0  0  0  0  0  0  0  0  0  0  0  0
    0.0314    8.8067    0.2994 H   0  0  0  0  0  0  0  0  0  0  0  0
   -0.2180    8.7340   -2.2350 H   0  0  0  0  0  0  0  0  0  0  0  0
   -0.4491   10.6499    1.3878 H   0  0  0  0  0  0  0  0  0  0  0  0
   -0.2410   12.2559    0.6105 H   0  0  0  0  0  0  0  0  0  0  0  0
   -1.8514   11.4600    0.6105 H   0  0  0  0  0  0  0  0  0  0  0  0
   -2.4428    9.8116   -0.5359 H   0  0  0  0  0  0  0  0  0  0  0  0
   -2.2324   10.8571   -1.9813 H   0  0  0  0  0  0  0  0  0  0  0  0
   -1.5814    9.1829   -1.9813 H   0  0  0  0  0  0  0  0  0  0  0  0
    3.8136   11.4769   -3.0656 H   0  0  0  0  0  0  0  0  0  0  0  0
    2.3624   11.7716   -4.0824 H   0  0  0  0  0  0  0  0  0  0  0  0
    3.7144   12.9544   -4.0824 H   0  0  0  0  0  0  0  0  0  0  0  0
    4.0375   12.9939   -0.7791 H   0  0  0  0  0  0  0  0  0  0  0  0
    4.3424   14.0537   -2.2686 H   0  0  0  0  0  0  0  0  0  0  0  0
    2.6541   14.7187    0.1591 H   0  0  0  0  0  0  0  0  0  0  0  0
    4.1952   15.4880   -0.3887 H   0  0  0  0  0  0  0  0  0  0  0  0
    4.3291   16.8445   -2.3750 H   0  0  0  0  0  0  0  0  0  0  0  0
    3.6462   15.5302   -3.3914 H   0  0  0  0  0  0  0  0  0  0  0  0
    2.8810   17.1554   -3.3914 H   0  0  0  0  0  0  0  0  0  0  0  0
  1  2  1  0
  2  3  1  0
  3  4  1  0
  4  5  1  0
  5  6  1  0
  6  7  1  0
  7  8  1  0
  7  9  1  0
  2 10  1  0
 10 11  1  0
 11 12  1  0
 12 13  1  0
 13 14  1  1
 13 15  1  0
 15 16  1  0
 16 17  1  0
 17 18  2  0
 18 19  1  0
 19 20  1  0
 20 21  1  0
 21 22  1  0
 22 23  1  0
 22 24  1  0
 24 25  1  0
 24 26  1  0
 19 27  1  0
 27 28  1  6
 27 29  1  0
 29 30  1  0
 30 31  1  0
 31 32  1  6
  7  5  1  0
 31 10  1  0
 31 13  1  0
 27 15  1  0
 24 18  1  0
  1 33  1  0
  1 34  1  0
  1 35  1  0
  2 36  1  6
  3 37  1  0
  3 38  1  0
  4 39  1  0
  4 40  1  0
  5 41  1  6
  8 42  1  0
  8 43  1  0
  8 44  1  0
  9 45  1  0
  9 46  1  0
  9 47  1  0
 10 48  1  1
 11 49  1  0
 11 50  1  0
 12 51  1  0
 12 52  1  0
 14 53  1  0
 14 54  1  0
 14 55  1  0
 15 56  1  6
 16 57  1  0
 16 58  1  0
 17 59  1  0
 19 60  1  1
 20 61  1  0
 20 62  1  0
 21 63  1  0
 21 64  1  0
 22 65  1  1
 23 66  1  0
 25 67  1  0
 25 68  1  0
 25 69  1  0
 26 70  1  0
 26 71  1  0
 26 72  1  0
 28 73  1  0
 28 74  1  0
 28 75  1  0
 29 76  1  0
 29 77  1  0
 30 78  1  0
 30 79  1  0
 32 80  1  0
 32 81  1  0
 32 82  1  0
M  END
>  <meeko>  (2) 
{"is_sidechain": [false], "intermolecular_energy": 2.731, "internal_energy": -0.839}

$$$$
EPH_relaxed_0001_pdb2pqr_Repair_287_r2_0001_out
     RDKit          3D

 82 86  0  0  0  0  0  0  0  0999 V2000
   -1.0540    8.8230   -1.8810 C   0  0  0  0  0  0  0  0  0  0  0  0
   -1.4930    9.2230   -0.4690 C   0  0  2  0  0  0  0  0  0  0  0  0
   -3.0260    9.3410   -0.3510 C   0  0  0  0  0  0  0  0  0  0  0  0
   -3.7900    8.3610   -1.2450 C   0  0  0  0  0  0  0  0  0  0  0  0
   -5.1640    8.0830   -0.7140 C   0  0  2  0  0  0  0  0  0  0  0  0
   -5.4540    6.6960   -0.5000 O   0  0  0  0  0  0  0  0  0  0  0  0
   -6.2360    7.3580   -1.5070 C   0  0  0  0  0  0  0  0  0  0  0  0
   -5.9800    6.8670   -2.8970 C   0  0  0  0  0  0  0  0  0  0  0  0
   -7.6690    7.5580   -1.1220 C   0  0  0  0  0  0  0  0  0  0  0  0
   -0.8370   10.5400   -0.0740 C   0  0  1  0  0  0  0  0  0  0  0  0
    0.0750   10.4020    1.1740 C   0  0  0  0  0  0  0  0  0  0  0  0
    1.2670   11.3720    0.9670 C   0  0  0  0  0  0  0  0  0  0  0  0
    0.8390   12.2690   -0.2180 C   0  0  1  0  0  0  0  0  0  0  0  0
   -0.0940   13.3490    0.4140 C   0  0  0  0  0  0  0  0  0  0  0  0
    1.9950   12.9170   -1.0470 C   0  0  2  0  0  0  0  0  0  0  0  0
    2.8960   13.8870   -0.2620 C   0  0  0  0  0  0  0  0  0  0  0  0
    2.4610   15.3150   -0.2780 C   0  0  0  0  0  0  0  0  0  0  0  0
    1.5600   15.8490   -1.1230 C   0  0  0  0  0  0  0  0  0  0  0  0
    0.9460   15.0120   -2.2530 C   0  0  1  0  0  0  0  0  0  0  0  0
    0.9780   15.8240   -3.5740 C   0  0  0  0  0  0  0  0  0  0  0  0
    0.3160   17.1920   -3.4370 C   0  0  0  0  0  0  0  0  0  0  0  0
    0.9910   18.0160   -2.3430 C   0  0  2  0  0  0  0  0  0  0  0  0
    2.3240   18.3290   -2.7590 O   0  0  0  0  0  0  0  0  0  0  0  0
    1.0280   17.2950   -0.9670 C   0  0  0  0  0  0  0  0  0  0  0  0
   -0.4030   17.2260   -0.3770 C   0  0  0  0  0  0  0  0  0  0  0  0
    1.8580   18.1720    0.0090 C   0  0  0  0  0  0  0  0  0  0  0  0
    1.5320   13.5440   -2.4240 C   0  0  1  0  0  0  0  0  0  0  0  0
    2.7900   13.5770   -3.3440 C   0  0  0  0  0  0  0  0  0  0  0  0
    0.4670   12.6490   -3.1610 C   0  0  0  0  0  0  0  0  0  0  0  0
   -0.5760   11.9390   -2.2760 C   0  0  0  0  0  0  0  0  0  0  0  0
    0.0990   11.2080   -1.1120 C   0  0  2  0  0  0  0  0  0  0  0  0
    1.0270   10.1000   -1.7170 C   0  0  0  0  0  0  0  0  0  0  0  0
   -0.2423    8.0834   -1.8169 H   0  0  0  0  0  0  0  0  0  0  0  0
   -1.9071    8.3853   -2.4200 H   0  0  0  0  0  0  0  0  0  0  0  0
   -0.6973    9.7131   -2.4200 H   0  0  0  0  0  0  0  0  0  0  0  0
   -1.1687    8.4268    0.2172 H   0  0  0  0  0  0  0  0  0  0  0  0
   -3.3094    9.1503    0.6946 H   0  0  0  0  0  0  0  0  0  0  0  0
   -3.2964   10.3548   -0.6813 H   0  0  0  0  0  0  0  0  0  0  0  0
   -3.8778    8.7921   -2.2532 H   0  0  0  0  0  0  0  0  0  0  0  0
   -3.2330    7.4127   -1.2693 H   0  0  0  0  0  0  0  0  0  0  0  0
   -5.1700    9.0357   -0.1641 H   0  0  0  0  0  0  0  0  0  0  0  0
   -5.4718    5.8924   -2.8538 H   0  0  0  0  0  0  0  0  0  0  0  0
   -6.9364    6.7586   -3.4295 H   0  0  0  0  0  0  0  0  0  0  0  0
   -5.3436    7.5891   -3.4295 H   0  0  0  0  0  0  0  0  0  0  0  0
   -7.7558    7.5701   -0.0255 H   0  0  0  0  0  0  0  0  0  0  0  0
   -8.0278    8.5149   -1.5288 H   0  0  0  0  0  0  0  0  0  0  0  0
   -8.2761    6.7359   -1.5288 H   0  0  0  0  0  0  0  0  0  0  0  0
   -1.7359   11.1566    0.0738 H   0  0  0  0  0  0  0  0  0  0  0  0
   -0.4822   10.6751    2.0823 H   0  0  0  0  0  0  0  0  0  0  0  0
    0.4252    9.3662    1.2945 H   0  0  0  0  0  0  0  0  0  0  0  0
    1.4370   11.9766    1.8701 H   0  0  0  0  0  0  0  0  0  0  0  0
    2.2086   10.8392    0.7680 H   0  0  0  0  0  0  0  0  0  0  0  0
   -0.0387   13.2849    1.5107 H   0  0  0  0  0  0  0  0  0  0  0  0
    0.2292   14.3487    0.0883 H   0  0  0  0  0  0  0  0  0  0  0  0
   -1.1301   13.1744    0.0883 H   0  0  0  0  0  0  0  0  0  0  0  0
    2.6278   12.0501   -1.2880 H   0  0  0  0  0  0  0  0  0  0  0  0
    2.9248   13.5521    0.7854 H   0  0  0  0  0  0  0  0  0  0  0  0
    3.8768   13.8618   -0.7595 H   0  0  0  0  0  0  0  0  0  0  0  0
    2.9156   15.9879    0.4640 H   0  0  0  0  0  0  0  0  0  0  0  0
   -0.0963   14.8196   -1.9587 H   0  0  0  0  0  0  0  0  0  0  0  0
    2.0265   15.9682   -3.8738 H   0  0  0  0  0  0  0  0  0  0  0  0
    0.4153   15.2552   -4.3289 H   0  0  0  0  0  0  0  0  0  0  0  0
    0.3966   17.7287   -4.3938 H   0  0  0  0  0  0  0  0  0  0  0  0
   -0.7402   17.0462   -3.1665 H   0  0  0  0  0  0  0  0  0  0  0  0
    0.3940   18.9290   -2.2015 H   0  0  0  0  0  0  0  0  0  0  0  0
    2.8570   18.4640   -1.9580 H   0  0  0  0  0  0  0  0  0  0  0  0
   -0.3472   17.2287    0.7216 H   0  0  0  0  0  0  0  0  0  0  0  0
   -0.9821   18.0973   -0.7169 H   0  0  0  0  0  0  0  0  0  0  0  0
   -0.8956   16.3031   -0.7169 H   0  0  0  0  0  0  0  0  0  0  0  0
    1.6059   17.9056    1.0461 H   0  0  0  0  0  0  0  0  0  0  0  0
    2.9304   17.9985   -0.1638 H   0  0  0  0  0  0  0  0  0  0  0  0
    1.6258   19.2332   -0.1638 H   0  0  0  0  0  0  0  0  0  0  0  0
    3.6977   13.6008   -2.7232 H   0  0  0  0  0  0  0  0  0  0  0  0
    2.8035   12.6789   -3.9790 H   0  0  0  0  0  0  0  0  0  0  0  0
    2.7564   14.4746   -3.9790 H   0  0  0  0  0  0  0  0  0  0  0  0
   -0.0784   13.2934   -3.8663 H   0  0  0  0  0  0  0  0  0  0  0  0
    1.0460   11.8394   -3.6293 H   0  0  0  0  0  0  0  0  0  0  0  0
   -1.2756   12.6867   -1.8741 H   0  0  0  0  0  0  0  0  0  0  0  0
   -1.1124   11.2005   -2.8900 H   0  0  0  0  0  0  0  0  0  0  0  0
    1.5013    9.5337   -0.9019 H   0  0  0  0  0  0  0  0  0  0  0  0
    0.4271    9.4175   -2.3369 H   0  0  0  0  0  0  0  0  0  0  0  0
    1.8042   10.5709   -2.3369 H   0  0  0  0  0  0  0  0  0  0  0  0
  1  2  1  0
  2  3  1  0
  3  4  1  0
  4  5  1  0
  5  6  1  0
  6  7  1  0
  7  8  1  0
  7  9  1  0
  2 10  1  0
 10 11  1  0
 11 12  1  0
 12 13  1  0
 13 14  1  1
 13 15  1  0
 15 16  1  0
 16 17  1  0
 17 18  2  0
 18 19  1  0
 19 20  1  0
 20 21  1  0
 21 22  1  0
 22 23  1  0
 22 24  1  0
 24 25  1  0
 24 26  1  0
 19 27  1  0
 27 28  1  6
 27 29  1  0
 29 30  1  0
 30 31  1  0
 31 32  1  6
  7  5  1  0
 31 10  1  0
 31 13  1  0
 27 15  1  0
 24 18  1  0
  1 33  1  0
  1 34  1  0
  1 35  1  0
  2 36  1  1
  3 37  1  0
  3 38  1  0
  4 39  1  0
  4 40  1  0
  5 41  1  1
  8 42  1  0
  8 43  1  0
  8 44  1  0
  9 45  1  0
  9 46  1  0
  9 47  1  0
 10 48  1  1
 11 49  1  0
 11 50  1  0
 12 51  1  0
 12 52  1  0
 14 53  1  0
 14 54  1  0
 14 55  1  0
 15 56  1  6
 16 57  1  0
 16 58  1  0
 17 59  1  0
 19 60  1  1
 20 61  1  0
 20 62  1  0
 21 63  1  0
 21 64  1  0
 22 65  1  1
 23 66  1  0
 25 67  1  0
 25 68  1  0
 25 69  1  0
 26 70  1  0
 26 71  1  0
 26 72  1  0
 28 73  1  0
 28 74  1  0
 28 75  1  0
 29 76  1  0
 29 77  1  0
 30 78  1  0
 30 79  1  0
 32 80  1  0
 32 81  1  0
 32 82  1  0
M  END
>  <meeko>  (3) 
{"is_sidechain": [false], "intermolecular_energy": 2.731, "internal_energy": -0.839}

$$$$
EPH_relaxed_0001_pdb2pqr_Repair_287_r2_0001_out
     RDKit          3D

 82 86  0  0  0  0  0  0  0  0999 V2000
    3.1480   17.2210    0.3850 C   0  0  0  0  0  0  0  0  0  0  0  0
    2.6190   17.4250   -1.0370 C   0  0  2  0  0  0  0  0  0  0  0  0
    1.9250   18.7920   -1.2090 C   0  0  0  0  0  0  0  0  0  0  0  0
    1.3980   19.3820    0.1020 C   0  0  0  0  0  0  0  0  0  0  0  0
    0.0720   20.0560   -0.0880 C   0  0  2  0  0  0  0  0  0  0  0  0
   -0.7060   20.1940    1.1080 O   0  0  0  0  0  0  0  0  0  0  0  0
   -1.2580   19.3490    0.0860 C   0  0  0  0  0  0  0  0  0  0  0  0
   -1.3300   17.9030    0.4660 C   0  0  0  0  0  0  0  0  0  0  0  0
   -2.4680   19.9240   -0.5830 C   0  0  0  0  0  0  0  0  0  0  0  0
    1.6540   16.3020   -1.3980 C   0  0  1  0  0  0  0  0  0  0  0  0
    0.8190   16.6170   -2.6680 C   0  0  0  0  0  0  0  0  0  0  0  0
    0.6120   15.2730   -3.4120 C   0  0  0  0  0  0  0  0  0  0  0  0
    1.0400   14.1920   -2.3920 C   0  0  1  0  0  0  0  0  0  0  0  0
   -0.1970   14.0100   -1.4580 C   0  0  0  0  0  0  0  0  0  0  0  0
    1.5180   12.8280   -2.9890 C   0  0  2  0  0  0  0  0  0  0  0  0
    0.4550   12.0600   -3.7930 C   0  0  0  0  0  0  0  0  0  0  0  0
   -0.3740   11.1030   -3.0020 C   0  0  0  0  0  0  0  0  0  0  0  0
   -0.0880   10.6570   -1.7650 C   0  0  0  0  0  0  0  0  0  0  0  0
    1.2240   11.0450   -1.0720 C   0  0  1  0  0  0  0  0  0  0  0  0
    1.8720    9.7820   -0.4460 C   0  0  0  0  0  0  0  0  0  0  0  0
    0.9200    9.0360    0.4840 C   0  0  0  0  0  0  0  0  0  0  0  0
   -0.3470    8.6160   -0.2570 C   0  0  2  0  0  0  0  0  0  0  0  0
   -0.0030    7.6360   -1.2410 O   0  0  0  0  0  0  0  0  0  0  0  0
   -1.0820    9.8050   -0.9370 C   0  0  0  0  0  0  0  0  0  0  0  0
   -1.7170   10.7130    0.1450 C   0  0  0  0  0  0  0  0  0  0  0  0
   -2.2610    9.2270   -1.7650 C   0  0  0  0  0  0  0  0  0  0  0  0
    2.2490   11.8860   -1.9480 C   0  0  1  0  0  0  0  0  0  0  0  0
    3.1540   10.9250   -2.7780 C   0  0  0  0  0  0  0  0  0  0  0  0
    3.2100   12.6850   -0.9910 C   0  0  0  0  0  0  0  0  0  0  0  0
    2.7350   14.0760   -0.5310 C   0  0  0  0  0  0  0  0  0  0  0  0
    2.2650   14.9160   -1.7230 C   0  0  2  0  0  0  0  0  0  0  0  0
    3.4940   15.1340   -2.6690 C   0  0  0  0  0  0  0  0  0  0  0  0
    2.3759   17.5188    1.1097 H   0  0  0  0  0  0  0  0  0  0  0  0
    3.4010   16.1608    0.5335 H   0  0  0  0  0  0  0  0  0  0  0  0
    4.0473   17.8368    0.5335 H   0  0  0  0  0  0  0  0  0  0  0  0
    3.4832   17.4063   -1.7173 H   0  0  0  0  0  0  0  0  0  0  0  0
    2.6496   19.4977   -1.6413 H   0  0  0  0  0  0  0  0  0  0  0  0
    1.0551   18.6318   -1.8629 H   0  0  0  0  0  0  0  0  0  0  0  0
    1.2843   18.5720    0.8375 H   0  0  0  0  0  0  0  0  0  0  0  0
    2.1186   20.1349    0.4540 H   0  0  0  0  0  0  0  0  0  0  0  0
    0.4771   20.6757   -0.9016 H   0  0  0  0  0  0  0  0  0  0  0  0
   -1.3345   17.8117    1.5622 H   0  0  0  0  0  0  0  0  0  0  0  0
   -2.2512   17.4620    0.0575 H   0  0  0  0  0  0  0  0  0  0  0  0
   -0.4572   17.3726    0.0575 H   0  0  0  0  0  0  0  0  0  0  0  0
   -3.1828   20.2637    0.1810 H   0  0  0  0  0  0  0  0  0  0  0  0
   -2.1696   20.7766   -1.2107 H   0  0  0  0  0  0  0  0  0  0  0  0
   -2.9405   19.1542   -1.2107 H   0  0  0  0  0  0  0  0  0  0  0  0
    1.0758   16.2487   -0.4638 H   0  0  0  0  0  0  0  0  0  0  0  0
   -0.1532   17.0470   -2.3851 H   0  0  0  0  0  0  0  0  0  0  0  0
    1.3347   17.3476   -3.3085 H   0  0  0  0  0  0  0  0  0  0  0  0
   -0.4433   15.1441   -3.6945 H   0  0  0  0  0  0  0  0  0  0  0  0
    1.1923   15.2191   -4.3449 H   0  0  0  0  0  0  0  0  0  0  0  0
    0.1264   14.0576   -0.4077 H   0  0  0  0  0  0  0  0  0  0  0  0
   -0.9254   14.8106   -1.6540 H   0  0  0  0  0  0  0  0  0  0  0  0
   -0.6639   13.0335   -1.6540 H   0  0  0  0  0  0  0  0  0  0  0  0
    2.2760   13.1428   -3.7213 H   0  0  0  0  0  0  0  0  0  0  0  0
   -0.2210   12.7960   -4.2527 H   0  0  0  0  0  0  0  0  0  0  0  0
    1.0071   11.4520   -4.5247 H   0  0  0  0  0  0  0  0  0  0  0  0
   -1.2972   10.7308   -3.4702 H   0  0  0  0  0  0  0  0  0  0  0  0
    0.9499   11.7563   -0.2790 H   0  0  0  0  0  0  0  0  0  0  0  0
    2.1770    9.1036   -1.2564 H   0  0  0  0  0  0  0  0  0  0  0  0
    2.7342   10.1109    0.1526 H   0  0  0  0  0  0  0  0  0  0  0  0
    1.4246    8.1388    0.8719 H   0  0  0  0  0  0  0  0  0  0  0  0
    0.6386    9.7057    1.3101 H   0  0  0  0  0  0  0  0  0  0  0  0
   -1.0427    8.2026    0.4880 H   0  0  0  0  0  0  0  0  0  0  0  0
    0.9260    7.3870   -1.0960 H   0  0  0  0  0  0  0  0  0  0  0  0
   -1.4521   10.3342    1.1432 H   0  0  0  0  0  0  0  0  0  0  0  0
   -1.3390   11.7396    0.0302 H   0  0  0  0  0  0  0  0  0  0  0  0
   -2.8110   10.7101    0.0302 H   0  0  0  0  0  0  0  0  0  0  0  0
   -3.0362    8.8470   -1.0833 H   0  0  0  0  0  0  0  0  0  0  0  0
   -2.6865   10.0187   -2.3992 H   0  0  0  0  0  0  0  0  0  0  0  0
   -1.8958    8.4058   -2.3992 H   0  0  0  0  0  0  0  0  0  0  0  0
    3.7453   10.2971   -2.0952 H   0  0  0  0  0  0  0  0  0  0  0  0
    2.5237   10.2842   -3.4122 H   0  0  0  0  0  0  0  0  0  0  0  0
    3.8314   11.5157   -3.4122 H   0  0  0  0  0  0  0  0  0  0  0  0
    3.3672   12.0728   -0.0907 H   0  0  0  0  0  0  0  0  0  0  0  0
    4.1162   12.8730   -1.5855 H   0  0  0  0  0  0  0  0  0  0  0  0
    1.9009   13.9560    0.1760 H   0  0  0  0  0  0  0  0  0  0  0  0
    3.5774   14.5926   -0.0478 H   0  0  0  0  0  0  0  0  0  0  0  0
    4.3985   15.2944   -2.0639 H   0  0  0  0  0  0  0  0  0  0  0  0
    3.6302   14.2460   -3.3037 H   0  0  0  0  0  0  0  0  0  0  0  0
    3.3165   16.0147   -3.3037 H   0  0  0  0  0  0  0  0  0  0  0  0
  1  2  1  0
  2  3  1  0
  3  4  1  0
  4  5  1  0
  5  6  1  0
  6  7  1  0
  7  8  1  0
  7  9  1  0
  2 10  1  0
 10 11  1  0
 11 12  1  0
 12 13  1  0
 13 14  1  1
 13 15  1  0
 15 16  1  0
 16 17  1  0
 17 18  2  0
 18 19  1  0
 19 20  1  0
 20 21  1  0
 21 22  1  0
 22 23  1  0
 22 24  1  0
 24 25  1  0
 24 26  1  0
 19 27  1  0
 27 28  1  6
 27 29  1  0
 29 30  1  0
 30 31  1  0
 31 32  1  6
  7  5  1  0
 31 10  1  0
 31 13  1  0
 27 15  1  0
 24 18  1  0
  1 33  1  0
  1 34  1  0
  1 35  1  0
  2 36  1  6
  3 37  1  0
  3 38  1  0
  4 39  1  0
  4 40  1  0
  5 41  1  6
  8 42  1  0
  8 43  1  0
  8 44  1  0
  9 45  1  0
  9 46  1  0
  9 47  1  0
 10 48  1  1
 11 49  1  0
 11 50  1  0
 12 51  1  0
 12 52  1  0
 14 53  1  0
 14 54  1  0
 14 55  1  0
 15 56  1  6
 16 57  1  0
 16 58  1  0
 17 59  1  0
 19 60  1  1
 20 61  1  0
 20 62  1  0
 21 63  1  0
 21 64  1  0
 22 65  1  1
 23 66  1  0
 25 67  1  0
 25 68  1  0
 25 69  1  0
 26 70  1  0
 26 71  1  0
 26 72  1  0
 28 73  1  0
 28 74  1  0
 28 75  1  0
 29 76  1  0
 29 77  1  0
 30 78  1  0
 30 79  1  0
 32 80  1  0
 32 81  1  0
 32 82  1  0
M  END
>  <meeko>  (4) 
{"is_sidechain": [false], "intermolecular_energy": 2.731, "internal_energy": -0.839}

$$$$
EPH_relaxed_0001_pdb2pqr_Repair_287_r2_0001_out
     RDKit          3D

 82 86  0  0  0  0  0  0  0  0999 V2000
    3.9010   17.6690    0.3700 C   0  0  0  0  0  0  0  0  0  0  0  0
    2.6810   17.9640   -0.5080 C   0  0  2  0  0  0  0  0  0  0  0  0
    1.9880   19.2830   -0.1150 C   0  0  0  0  0  0  0  0  0  0  0  0
    1.6650   20.1880   -1.3070 C   0  0  0  0  0  0  0  0  0  0  0  0
    1.3780   19.3930   -2.5440 C   0  0  2  0  0  0  0  0  0  0  0  0
    1.1070   20.1790   -3.7120 O   0  0  0  0  0  0  0  0  0  0  0  0
    0.0230   19.3690   -3.2280 C   0  0  0  0  0  0  0  0  0  0  0  0
   -1.1330   20.1560   -2.6950 C   0  0  0  0  0  0  0  0  0  0  0  0
   -0.3090   18.2120   -4.1180 C   0  0  0  0  0  0  0  0  0  0  0  0
    1.6900   16.8090   -0.4240 C   0  0  1  0  0  0  0  0  0  0  0  0
    0.2180   17.2710   -0.5970 C   0  0  0  0  0  0  0  0  0  0  0  0
   -0.5210   16.1380   -1.3530 C   0  0  0  0  0  0  0  0  0  0  0  0
    0.4490   14.9350   -1.2980 C   0  0  1  0  0  0  0  0  0  0  0  0
    0.2290   14.3070    0.1150 C   0  0  0  0  0  0  0  0  0  0  0  0
    0.2960   13.8700   -2.4320 C   0  0  2  0  0  0  0  0  0  0  0  0
   -1.0600   13.1450   -2.4680 C   0  0  0  0  0  0  0  0  0  0  0  0
   -1.1330   11.8880   -1.6650 C   0  0  0  0  0  0  0  0  0  0  0  0
   -0.0780   11.2110   -1.1760 C   0  0  0  0  0  0  0  0  0  0  0  0
    1.3570   11.6460   -1.5000 C   0  0  1  0  0  0  0  0  0  0  0  0
    2.1940   10.4060   -1.9120 C   0  0  0  0  0  0  0  0  0  0  0  0
    2.1430    9.2940   -0.8690 C   0  0  0  0  0  0  0  0  0  0  0  0
    0.7060    8.8480   -0.6160 C   0  0  2  0  0  0  0  0  0  0  0  0
    0.2030    8.2210   -1.8000 O   0  0  0  0  0  0  0  0  0  0  0  0
   -0.2350   10.0150   -0.2040 C   0  0  0  0  0  0  0  0  0  0  0  0
    0.1290   10.4970    1.2220 C   0  0  0  0  0  0  0  0  0  0  0  0
   -1.6800    9.4560   -0.1180 C   0  0  0  0  0  0  0  0  0  0  0  0
    1.5010   12.8480   -2.5300 C   0  0  1  0  0  0  0  0  0  0  0  0
    1.5030   12.3010   -3.9900 C   0  0  0  0  0  0  0  0  0  0  0  0
    2.8960   13.5460   -2.3140 C   0  0  0  0  0  0  0  0  0  0  0  0
    2.9550   14.6710   -1.2640 C   0  0  0  0  0  0  0  0  0  0  0  0
    1.8220   15.6800   -1.4760 C   0  0  2  0  0  0  0  0  0  0  0  0
    2.0300   16.3440   -2.8800 C   0  0  0  0  0  0  0  0  0  0  0  0
    3.6152   17.7381    1.4300 H   0  0  0  0  0  0  0  0  0  0  0  0
    4.2708   16.6555    0.1553 H   0  0  0  0  0  0  0  0  0  0  0  0
    4.6930   18.4015    0.1553 H   0  0  0  0  0  0  0  0  0  0  0  0
    3.0366   18.0746   -1.5431 H   0  0  0  0  0  0  0  0  0  0  0  0
    1.0477   19.0406    0.4017 H   0  0  0  0  0  0  0  0  0  0  0  0
    2.6896   19.8356    0.5271 H   0  0  0  0  0  0  0  0  0  0  0  0
    0.7830   20.7982   -1.0627 H   0  0  0  0  0  0  0  0  0  0  0  0
    2.5415   20.8231   -1.5030 H   0  0  0  0  0  0  0  0  0  0  0  0
    2.0511   18.5890   -2.2115 H   0  0  0  0  0  0  0  0  0  0  0  0
   -1.1109   20.1410   -1.5953 H   0  0  0  0  0  0  0  0  0  0  0  0
   -1.0634   21.1952   -3.0490 H   0  0  0  0  0  0  0  0  0  0  0  0
   -2.0743   19.7103   -3.0490 H   0  0  0  0  0  0  0  0  0  0  0  0
   -0.5604   17.3359   -3.5021 H   0  0  0  0  0  0  0  0  0  0  0  0
   -1.1686   18.4727   -4.7529 H   0  0  0  0  0  0  0  0  0  0  0  0
    0.5580   17.9772   -4.7529 H   0  0  0  0  0  0  0  0  0  0  0  0
    1.9413   16.4234    0.5751 H   0  0  0  0  0  0  0  0  0  0  0  0
   -0.2456   17.4348    0.3870 H   0  0  0  0  0  0  0  0  0  0  0  0
    0.1644   18.2177   -1.1545 H   0  0  0  0  0  0  0  0  0  0  0  0
   -1.4709   15.8940   -0.8548 H   0  0  0  0  0  0  0  0  0  0  0  0
   -0.7753   16.4219   -2.3848 H   0  0  0  0  0  0  0  0  0  0  0  0
    0.4876   15.0451    0.8886 H   0  0  0  0  0  0  0  0  0  0  0  0
   -0.8254   14.0138    0.2258 H   0  0  0  0  0  0  0  0  0  0  0  0
    0.8699   13.4199    0.2258 H   0  0  0  0  0  0  0  0  0  0  0  0
    0.3280   14.4886   -3.3410 H   0  0  0  0  0  0  0  0  0  0  0  0
   -1.8255   13.8368   -2.0867 H   0  0  0  0  0  0  0  0  0  0  0  0
   -1.2178   12.8468   -3.5150 H   0  0  0  0  0  0  0  0  0  0  0  0
   -2.1334   11.4814   -1.4557 H   0  0  0  0  0  0  0  0  0  0  0  0
    1.7605   12.0773   -0.5720 H   0  0  0  0  0  0  0  0  0  0  0  0
    1.8021   10.0160   -2.8629 H   0  0  0  0  0  0  0  0  0  0  0  0
    3.2418   10.7268   -2.0076 H   0  0  0  0  0  0  0  0  0  0  0  0
    2.7281    8.4352   -1.2297 H   0  0  0  0  0  0  0  0  0  0  0  0
    2.5623    9.6772    0.0730 H   0  0  0  0  0  0  0  0  0  0  0  0
    0.7233    8.1453    0.2301 H   0  0  0  0  0  0  0  0  0  0  0  0
   -0.4390    7.5450   -1.5250 H   0  0  0  0  0  0  0  0  0  0  0  0
   -0.3603    9.8491    1.9641 H   0  0  0  0  0  0  0  0  0  0  0  0
    1.2197   10.4509    1.3574 H   0  0  0  0  0  0  0  0  0  0  0  0
   -0.2138   11.5334    1.3574 H   0  0  0  0  0  0  0  0  0  0  0  0
   -1.9678    9.3447    0.9378 H   0  0  0  0  0  0  0  0  0  0  0  0
   -2.3723   10.1512   -0.6154 H   0  0  0  0  0  0  0  0  0  0  0  0
   -1.7242    8.4759   -0.6154 H   0  0  0  0  0  0  0  0  0  0  0  0
    1.5070   11.2012   -3.9695 H   0  0  0  0  0  0  0  0  0  0  0  0
    0.6036   12.6547   -4.5153 H   0  0  0  0  0  0  0  0  0  0  0  0
    2.3998   12.6612   -4.5153 H   0  0  0  0  0  0  0  0  0  0  0  0
    3.6131   12.7693   -2.0100 H   0  0  0  0  0  0  0  0  0  0  0  0
    3.1244   14.0350   -3.2725 H   0  0  0  0  0  0  0  0  0  0  0  0
    2.8618   14.2312   -0.2600 H   0  0  0  0  0  0  0  0  0  0  0  0
    3.9159   15.1964   -1.3670 H   0  0  0  0  0  0  0  0  0  0  0  0
    2.3564   17.3861   -2.7480 H   0  0  0  0  0  0  0  0  0  0  0  0
    2.7969   15.7875   -3.4388 H   0  0  0  0  0  0  0  0  0  0  0  0
    1.0827   16.3245   -3.4388 H   0  0  0  0  0  0  0  0  0  0  0  0
  1  2  1  0
  2  3  1  0
  3  4  1  0
  4  5  1  0
  5  6  1  0
  6  7  1  0
  7  8  1  0
  7  9  1  0
  2 10  1  0
 10 11  1  0
 11 12  1  0
 12 13  1  0
 13 14  1  1
 13 15  1  0
 15 16  1  0
 16 17  1  0
 17 18  2  0
 18 19  1  0
 19 20  1  0
 20 21  1  0
 21 22  1  0
 22 23  1  0
 22 24  1  0
 24 25  1  0
 24 26  1  0
 19 27  1  0
 27 28  1  6
 27 29  1  0
 29 30  1  0
 30 31  1  0
 31 32  1  6
  7  5  1  0
 31 10  1  0
 31 13  1  0
 27 15  1  0
 24 18  1  0
  1 33  1  0
  1 34  1  0
  1 35  1  0
  2 36  1  6
  3 37  1  0
  3 38  1  0
  4 39  1  0
  4 40  1  0
  5 41  1  6
  8 42  1  0
  8 43  1  0
  8 44  1  0
  9 45  1  0
  9 46  1  0
  9 47  1  0
 10 48  1  1
 11 49  1  0
 11 50  1  0
 12 51  1  0
 12 52  1  0
 14 53  1  0
 14 54  1  0
 14 55  1  0
 15 56  1  6
 16 57  1  0
 16 58  1  0
 17 59  1  0
 19 60  1  1
 20 61  1  0
 20 62  1  0
 21 63  1  0
 21 64  1  0
 22 65  1  1
 23 66  1  0
 25 67  1  0
 25 68  1  0
 25 69  1  0
 26 70  1  0
 26 71  1  0
 26 72  1  0
 28 73  1  0
 28 74  1  0
 28 75  1  0
 29 76  1  0
 29 77  1  0
 30 78  1  0
 30 79  1  0
 32 80  1  0
 32 81  1  0
 32 82  1  0
M  END
>  <meeko>  (5) 
{"is_sidechain": [false], "intermolecular_energy": 2.731, "internal_energy": -0.839}

$$$$
EPH_relaxed_0001_pdb2pqr_Repair_287_r2_0001_out
     RDKit          3D

 82 86  0  0  0  0  0  0  0  0999 V2000
    2.2970   18.1970   -2.2300 C   0  0  0  0  0  0  0  0  0  0  0  0
    1.7860   17.3660   -1.0490 C   0  0  2  0  0  0  0  0  0  0  0  0
    2.9280   16.9290   -0.1090 C   0  0  0  0  0  0  0  0  0  0  0  0
    3.9080   18.0540    0.2320 C   0  0  0  0  0  0  0  0  0  0  0  0
    3.5950   18.6790    1.5590 C   0  0  2  0  0  0  0  0  0  0  0  0
    3.9500   20.0630    1.6670 O   0  0  0  0  0  0  0  0  0  0  0  0
    4.6580   19.1580    2.5290 C   0  0  0  0  0  0  0  0  0  0  0  0
    6.1160   19.0320    2.2140 C   0  0  0  0  0  0  0  0  0  0  0  0
    4.2970   19.2950    3.9750 C   0  0  0  0  0  0  0  0  0  0  0  0
    1.0350   16.1420   -1.5610 C   0  0  1  0  0  0  0  0  0  0  0  0
    0.5230   16.3210   -3.0150 C   0  0  0  0  0  0  0  0  0  0  0  0
    0.6180   14.9310   -3.6960 C   0  0  0  0  0  0  0  0  0  0  0  0
    0.8620   13.9420   -2.5330 C   0  0  1  0  0  0  0  0  0  0  0  0
   -0.5520   13.6860   -1.9210 C   0  0  0  0  0  0  0  0  0  0  0  0
    1.5820   12.6040   -2.9020 C   0  0  2  0  0  0  0  0  0  0  0  0
    0.8200   11.7040   -3.8900 C   0  0  0  0  0  0  0  0  0  0  0  0
   -0.1010   10.7090   -3.2660 C   0  0  0  0  0  0  0  0  0  0  0  0
   -0.1000   10.3480   -1.9690 C   0  0  0  0  0  0  0  0  0  0  0  0
    0.9610   10.8880   -1.0020 C   0  0  1  0  0  0  0  0  0  0  0  0
    1.5310    9.7210   -0.1540 C   0  0  0  0  0  0  0  0  0  0  0  0
    0.4390    8.9290    0.5600 C   0  0  0  0  0  0  0  0  0  0  0  0
   -0.5640    8.3600   -0.4390 C   0  0  2  0  0  0  0  0  0  0  0  0
    0.0930    7.3740   -1.2420 O   0  0  0  0  0  0  0  0  0  0  0  0
   -1.1980    9.4430   -1.3570 C   0  0  0  0  0  0  0  0  0  0  0  0
   -2.1540   10.3340   -0.5260 C   0  0  0  0  0  0  0  0  0  0  0  0
   -2.0810    8.7200   -2.4090 C   0  0  0  0  0  0  0  0  0  0  0  0
    2.1020   11.7820   -1.6540 C   0  0  1  0  0  0  0  0  0  0  0  0
    3.2600   10.8740   -2.1700 C   0  0  0  0  0  0  0  0  0  0  0  0
    2.7250   12.7090   -0.5440 C   0  0  0  0  0  0  0  0  0  0  0  0
    2.0400   14.0690   -0.3090 C   0  0  0  0  0  0  0  0  0  0  0  0
    1.8170   14.8070   -1.6330 C   0  0  2  0  0  0  0  0  0  0  0  0
    3.2230   15.0980   -2.2600 C   0  0  0  0  0  0  0  0  0  0  0  0
    2.8381   19.0770   -1.8522 H   0  0  0  0  0  0  0  0  0  0  0  0
    2.9750   17.5849   -2.8429 H   0  0  0  0  0  0  0  0  0  0  0  0
    1.4448   18.5258   -2.8429 H   0  0  0  0  0  0  0  0  0  0  0  0
    1.1046   18.0032   -0.4662 H   0  0  0  0  0  0  0  0  0  0  0  0
    2.4848   16.5587    0.8272 H   0  0  0  0  0  0  0  0  0  0  0  0
    3.5007   16.1528   -0.6378 H   0  0  0  0  0  0  0  0  0  0  0  0
    4.9272   17.6415    0.2638 H   0  0  0  0  0  0  0  0  0  0  0  0
    3.8211   18.8308   -0.5420 H   0  0  0  0  0  0  0  0  0  0  0  0
    2.7199   18.0250    1.6874 H   0  0  0  0  0  0  0  0  0  0  0  0
    6.6905   18.9823    3.1507 H   0  0  0  0  0  0  0  0  0  0  0  0
    6.2871   18.1157    1.6299 H   0  0  0  0  0  0  0  0  0  0  0  0
    6.4417   19.9053    1.6299 H   0  0  0  0  0  0  0  0  0  0  0  0
    5.1454   18.9731    4.5968 H   0  0  0  0  0  0  0  0  0  0  0  0
    4.0588   20.3460    4.1955 H   0  0  0  0  0  0  0  0  0  0  0  0
    3.4215   18.6666    4.1955 H   0  0  0  0  0  0  0  0  0  0  0  0
    0.2469   16.0756   -0.7965 H   0  0  0  0  0  0  0  0  0  0  0  0
   -0.5203   16.6697   -3.0092 H   0  0  0  0  0  0  0  0  0  0  0  0
    1.1223   17.0681   -3.5560 H   0  0  0  0  0  0  0  0  0  0  0  0
   -0.3188   14.6906   -4.2200 H   0  0  0  0  0  0  0  0  0  0  0  0
    1.4162   14.8908   -4.4518 H   0  0  0  0  0  0  0  0  0  0  0  0
   -0.4841   13.6983   -0.8232 H   0  0  0  0  0  0  0  0  0  0  0  0
   -1.2439   14.4735   -2.2544 H   0  0  0  0  0  0  0  0  0  0  0  0
   -0.9239   12.7059   -2.2544 H   0  0  0  0  0  0  0  0  0  0  0  0
    2.4715   12.9569   -3.4445 H   0  0  0  0  0  0  0  0  0  0  0  0
    0.2240   12.3518   -4.5497 H   0  0  0  0  0  0  0  0  0  0  0  0
    1.5853   11.1190   -4.4212 H   0  0  0  0  0  0  0  0  0  0  0  0
   -0.8434   10.2301   -3.9213 H   0  0  0  0  0  0  0  0  0  0  0  0
    0.4408   11.6043   -0.3491 H   0  0  0  0  0  0  0  0  0  0  0  0
    2.0839    9.0400   -0.8177 H   0  0  0  0  0  0  0  0  0  0  0  0
    2.1856   10.1560    0.6156 H   0  0  0  0  0  0  0  0  0  0  0  0
    0.9010    8.1009    1.1175 H   0  0  0  0  0  0  0  0  0  0  0  0
   -0.0933    9.6047    1.2456 H   0  0  0  0  0  0  0  0  0  0  0  0
   -1.3886    7.9172    0.1389 H   0  0  0  0  0  0  0  0  0  0  0  0
    0.3250    7.7910   -2.0890 H   0  0  0  0  0  0  0  0  0  0  0  0
   -1.9732   10.1655    0.5459 H   0  0  0  0  0  0  0  0  0  0  0  0
   -1.9715   11.3917   -0.7668 H   0  0  0  0  0  0  0  0  0  0  0  0
   -3.1962   10.0776   -0.7668 H   0  0  0  0  0  0  0  0  0  0  0  0
   -2.8335    8.1039   -1.8950 H   0  0  0  0  0  0  0  0  0  0  0  0
   -2.5867    9.4668   -3.0388 H   0  0  0  0  0  0  0  0  0  0  0  0
   -1.4487    8.0769   -3.0388 H   0  0  0  0  0  0  0  0  0  0  0  0
    3.8023   10.4487   -1.3127 H   0  0  0  0  0  0  0  0  0  0  0  0
    2.8431   10.0596   -2.7807 H   0  0  0  0  0  0  0  0  0  0  0  0
    3.9515   11.4731   -2.7807 H   0  0  0  0  0  0  0  0  0  0  0  0
    2.6985   12.1547    0.4057 H   0  0  0  0  0  0  0  0  0  0  0  0
    3.7340   12.9541   -0.9071 H   0  0  0  0  0  0  0  0  0  0  0  0
    1.0680   13.9028    0.1784 H   0  0  0  0  0  0  0  0  0  0  0  0
    2.6911   14.6838    0.3298 H   0  0  0  0  0  0  0  0  0  0  0  0
    3.9585   15.2502   -1.4563 H   0  0  0  0  0  0  0  0  0  0  0  0
    3.5309   14.2445   -2.8819 H   0  0  0  0  0  0  0  0  0  0  0  0
    3.1668   16.0035   -2.8819 H   0  0  0  0  0  0  0  0  0  0  0  0
  1  2  1  0
  2  3  1  0
  3  4  1  0
  4  5  1  0
  5  6  1  0
  6  7  1  0
  7  8  1  0
  7  9  1  0
  2 10  1  0
 10 11  1  0
 11 12  1  0
 12 13  1  0
 13 14  1  1
 13 15  1  0
 15 16  1  0
 16 17  1  0
 17 18  2  0
 18 19  1  0
 19 20  1  0
 20 21  1  0
 21 22  1  0
 22 23  1  0
 22 24  1  0
 24 25  1  0
 24 26  1  0
 19 27  1  0
 27 28  1  6
 27 29  1  0
 29 30  1  0
 30 31  1  0
 31 32  1  6
  7  5  1  0
 31 10  1  0
 31 13  1  0
 27 15  1  0
 24 18  1  0
  1 33  1  0
  1 34  1  0
  1 35  1  0
  2 36  1  1
  3 37  1  0
  3 38  1  0
  4 39  1  0
  4 40  1  0
  5 41  1  1
  8 42  1  0
  8 43  1  0
  8 44  1  0
  9 45  1  0
  9 46  1  0
  9 47  1  0
 10 48  1  1
 11 49  1  0
 11 50  1  0
 12 51  1  0
 12 52  1  0
 14 53  1  0
 14 54  1  0
 14 55  1  0
 15 56  1  6
 16 57  1  0
 16 58  1  0
 17 59  1  0
 19 60  1  1
 20 61  1  0
 20 62  1  0
 21 63  1  0
 21 64  1  0
 22 65  1  1
 23 66  1  0
 25 67  1  0
 25 68  1  0
 25 69  1  0
 26 70  1  0
 26 71  1  0
 26 72  1  0
 28 73  1  0
 28 74  1  0
 28 75  1  0
 29 76  1  0
 29 77  1  0
 30 78  1  0
 30 79  1  0
 32 80  1  0
 32 81  1  0
 32 82  1  0
M  END
>  <meeko>  (6) 
{"is_sidechain": [false], "intermolecular_energy": 2.731, "internal_energy": -0.839}

$$$$
EPH_relaxed_0001_pdb2pqr_Repair_287_r2_0001_out
     RDKit          3D

 82 86  0  0  0  0  0  0  0  0999 V2000
   -0.6610    7.9240   -0.4440 C   0  0  0  0  0  0  0  0  0  0  0  0
   -1.1100    9.2950    0.0690 C   0  0  2  0  0  0  0  0  0  0  0  0
   -2.3680    9.8050   -0.6610 C   0  0  0  0  0  0  0  0  0  0  0  0
   -3.6800    9.3260   -0.0350 C   0  0  0  0  0  0  0  0  0  0  0  0
   -4.0600    7.9600   -0.5190 C   0  0  2  0  0  0  0  0  0  0  0  0
   -4.1660    7.8380   -1.9430 O   0  0  0  0  0  0  0  0  0  0  0  0
   -5.3800    7.6500   -1.1980 C   0  0  0  0  0  0  0  0  0  0  0  0
   -6.4070    8.7130   -1.4300 C   0  0  0  0  0  0  0  0  0  0  0  0
   -5.8720    6.2360   -1.1940 C   0  0  0  0  0  0  0  0  0  0  0  0
    0.0240   10.3030   -0.0810 C   0  0  1  0  0  0  0  0  0  0  0  0
    1.4260    9.6390   -0.0160 C   0  0  0  0  0  0  0  0  0  0  0  0
    2.3400   10.4290   -0.9870 C   0  0  0  0  0  0  0  0  0  0  0  0
    1.5390   11.7090   -1.3230 C   0  0  1  0  0  0  0  0  0  0  0  0
    1.7860   12.6650   -0.1140 C   0  0  0  0  0  0  0  0  0  0  0  0
    1.8790   12.4000   -2.6830 C   0  0  2  0  0  0  0  0  0  0  0  0
    3.3210   12.9210   -2.8080 C   0  0  0  0  0  0  0  0  0  0  0  0
    3.5310   14.3300   -2.3610 C   0  0  0  0  0  0  0  0  0  0  0  0
    2.5580   15.2360   -2.1480 C   0  0  0  0  0  0  0  0  0  0  0  0
    1.0910   14.9030   -2.4520 C   0  0  1  0  0  0  0  0  0  0  0  0
    0.4460   16.0750   -3.2370 C   0  0  0  0  0  0  0  0  0  0  0  0
    0.6040   17.4140   -2.5230 C   0  0  0  0  0  0  0  0  0  0  0  0
    2.0780   17.7380   -2.2910 C   0  0  2  0  0  0  0  0  0  0  0  0
    2.7070   17.9560   -3.5580 O   0  0  0  0  0  0  0  0  0  0  0  0
    2.8350   16.6230   -1.5170 C   0  0  0  0  0  0  0  0  0  0  0  0
    2.3540   16.5920   -0.0450 C   0  0  0  0  0  0  0  0  0  0  0  0
    4.3390   17.0080   -1.4740 C   0  0  0  0  0  0  0  0  0  0  0  0
    0.8280   13.4930   -3.1360 C   0  0  1  0  0  0  0  0  0  0  0  0
    0.9570   13.6200   -4.6850 C   0  0  0  0  0  0  0  0  0  0  0  0
   -0.6560   13.0510   -2.8490 C   0  0  0  0  0  0  0  0  0  0  0  0
   -0.9070   12.2680   -1.5460 C   0  0  0  0  0  0  0  0  0  0  0  0
    0.0870   11.1120   -1.4000 C   0  0  2  0  0  0  0  0  0  0  0  0
   -0.1520   10.1220   -2.5910 C   0  0  0  0  0  0  0  0  0  0  0  0
   -0.4453    7.2655    0.4103 H   0  0  0  0  0  0  0  0  0  0  0  0
   -1.4611    7.4813   -1.0554 H   0  0  0  0  0  0  0  0  0  0  0  0
    0.2460    8.0403   -1.0554 H   0  0  0  0  0  0  0  0  0  0  0  0
   -1.3688    9.1818    1.1321 H   0  0  0  0  0  0  0  0  0  0  0  0
   -2.3568   10.9048   -0.6449 H   0  0  0  0  0  0  0  0  0  0  0  0
   -2.3329    9.3996   -1.6829 H   0  0  0  0  0  0  0  0  0  0  0  0
   -3.5633    9.2969    1.0584 H   0  0  0  0  0  0  0  0  0  0  0  0
   -4.4754   10.0268   -0.3286 H   0  0  0  0  0  0  0  0  0  0  0  0
   -3.5375    7.4894    0.3269 H   0  0  0  0  0  0  0  0  0  0  0  0
   -6.7704    9.0892   -0.4623 H   0  0  0  0  0  0  0  0  0  0  0  0
   -5.9569    9.5397   -1.9991 H   0  0  0  0  0  0  0  0  0  0  0  0
   -7.2487    8.2916   -1.9991 H   0  0  0  0  0  0  0  0  0  0  0  0
   -5.9916    5.8923   -0.1559 H   0  0  0  0  0  0  0  0  0  0  0  0
   -6.8412    6.1835   -1.7116 H   0  0  0  0  0  0  0  0  0  0  0  0
   -5.1447    5.5932   -1.7116 H   0  0  0  0  0  0  0  0  0  0  0  0
   -0.2121   10.9721    0.7595 H   0  0  0  0  0  0  0  0  0  0  0  0
    1.8240    9.6938    1.0080 H   0  0  0  0  0  0  0  0  0  0  0  0
    1.3737    8.5772   -0.2984 H   0  0  0  0  0  0  0  0  0  0  0  0
    3.2937   10.6840   -0.5017 H   0  0  0  0  0  0  0  0  0  0  0  0
    2.5942    9.8482   -1.8859 H   0  0  0  0  0  0  0  0  0  0  0  0
    1.6431   12.1119    0.8260 H   0  0  0  0  0  0  0  0  0  0  0  0
    2.8141   13.0537   -0.1580 H   0  0  0  0  0  0  0  0  0  0  0  0
    1.0749   13.5031   -0.1580 H   0  0  0  0  0  0  0  0  0  0  0  0
    1.7999   11.5665   -3.3965 H   0  0  0  0  0  0  0  0  0  0  0  0
    3.9706   12.2719   -2.2025 H   0  0  0  0  0  0  0  0  0  0  0  0
    3.5588   12.9038   -3.8819 H   0  0  0  0  0  0  0  0  0  0  0  0
    4.5680   14.6553   -2.1914 H   0  0  0  0  0  0  0  0  0  0  0  0
    0.5961   14.7903   -1.4761 H   0  0  0  0  0  0  0  0  0  0  0  0
    0.9248   16.1435   -4.2250 H   0  0  0  0  0  0  0  0  0  0  0  0
   -0.6308   15.8671   -3.3226 H   0  0  0  0  0  0  0  0  0  0  0  0
    0.1540   18.2061   -3.1395 H   0  0  0  0  0  0  0  0  0  0  0  0
    0.1000   17.3532   -1.5471 H   0  0  0  0  0  0  0  0  0  0  0  0
    2.1231   18.6411   -1.6646 H   0  0  0  0  0  0  0  0  0  0  0  0
    2.2920   18.7370   -3.9610 H   0  0  0  0  0  0  0  0  0  0  0  0
    3.2237   16.6481    0.6262 H   0  0  0  0  0  0  0  0  0  0  0  0
    1.6906   17.4493    0.1421 H   0  0  0  0  0  0  0  0  0  0  0  0
    1.8061   15.6567    0.1421 H   0  0  0  0  0  0  0  0  0  0  0  0
    4.6663   17.0918   -0.4272 H   0  0  0  0  0  0  0  0  0  0  0  0
    4.9307   16.2324   -1.9822 H   0  0  0  0  0  0  0  0  0  0  0  0
    4.4853   17.9725   -1.9822 H   0  0  0  0  0  0  0  0  0  0  0  0
    1.7214   14.3725   -4.9288 H   0  0  0  0  0  0  0  0  0  0  0  0
    1.2504   12.6485   -5.1094 H   0  0  0  0  0  0  0  0  0  0  0  0
   -0.0098   13.9286   -5.1094 H   0  0  0  0  0  0  0  0  0  0  0  0
   -1.2737   13.9606   -2.8151 H   0  0  0  0  0  0  0  0  0  0  0  0
   -0.9103   12.3516   -3.6591 H   0  0  0  0  0  0  0  0  0  0  0  0
   -0.7947   12.9492   -0.6897 H   0  0  0  0  0  0  0  0  0  0  0  0
   -1.9251   11.8528   -1.5773 H   0  0  0  0  0  0  0  0  0  0  0  0
   -0.3929    9.1242   -2.1957 H   0  0  0  0  0  0  0  0  0  0  0  0
   -0.9885   10.4842   -3.2067 H   0  0  0  0  0  0  0  0  0  0  0  0
    0.7576   10.0627   -3.2067 H   0  0  0  0  0  0  0  0  0  0  0  0
  1  2  1  0
  2  3  1  0
  3  4  1  0
  4  5  1  0
  5  6  1  0
  6  7  1  0
  7  8  1  0
  7  9  1  0
  2 10  1  0
 10 11  1  0
 11 12  1  0
 12 13  1  0
 13 14  1  1
 13 15  1  0
 15 16  1  0
 16 17  1  0
 17 18  2  0
 18 19  1  0
 19 20  1  0
 20 21  1  0
 21 22  1  0
 22 23  1  0
 22 24  1  0
 24 25  1  0
 24 26  1  0
 19 27  1  0
 27 28  1  6
 27 29  1  0
 29 30  1  0
 30 31  1  0
 31 32  1  6
  7  5  1  0
 31 10  1  0
 31 13  1  0
 27 15  1  0
 24 18  1  0
  1 33  1  0
  1 34  1  0
  1 35  1  0
  2 36  1  1
  3 37  1  0
  3 38  1  0
  4 39  1  0
  4 40  1  0
  5 41  1  1
  8 42  1  0
  8 43  1  0
  8 44  1  0
  9 45  1  0
  9 46  1  0
  9 47  1  0
 10 48  1  1
 11 49  1  0
 11 50  1  0
 12 51  1  0
 12 52  1  0
 14 53  1  0
 14 54  1  0
 14 55  1  0
 15 56  1  6
 16 57  1  0
 16 58  1  0
 17 59  1  0
 19 60  1  1
 20 61  1  0
 20 62  1  0
 21 63  1  0
 21 64  1  0
 22 65  1  1
 23 66  1  0
 25 67  1  0
 25 68  1  0
 25 69  1  0
 26 70  1  0
 26 71  1  0
 26 72  1  0
 28 73  1  0
 28 74  1  0
 28 75  1  0
 29 76  1  0
 29 77  1  0
 30 78  1  0
 30 79  1  0
 32 80  1  0
 32 81  1  0
 32 82  1  0
M  END
>  <meeko>  (7) 
{"is_sidechain": [false], "intermolecular_energy": 2.731, "internal_energy": -0.839}

$$$$
EPH_relaxed_0001_pdb2pqr_Repair_287_r2_0001_out
     RDKit          3D

 82 86  0  0  0  0  0  0  0  0999 V2000
    3.2130   18.0190   -1.1640 C   0  0  0  0  0  0  0  0  0  0  0  0
    2.8890   17.5320   -2.5790 C   0  0  2  0  0  0  0  0  0  0  0  0
    1.5440   18.0870   -3.0910 C   0  0  0  0  0  0  0  0  0  0  0  0
    0.9600   19.1940   -2.2100 C   0  0  0  0  0  0  0  0  0  0  0  0
   -0.3040   18.7570   -1.5350 C   0  0  2  0  0  0  0  0  0  0  0  0
   -1.0790   19.8210   -0.9670 O   0  0  0  0  0  0  0  0  0  0  0  0
   -0.5360   18.8680   -0.0390 C   0  0  0  0  0  0  0  0  0  0  0  0
    0.5080   19.4330    0.8720 C   0  0  0  0  0  0  0  0  0  0  0  0
   -1.5670   17.9860    0.5930 C   0  0  0  0  0  0  0  0  0  0  0  0
    2.8700   16.0080   -2.6130 C   0  0  1  0  0  0  0  0  0  0  0  0
    4.2940   15.3940   -2.6830 C   0  0  0  0  0  0  0  0  0  0  0  0
    4.2550   14.0790   -1.8640 C   0  0  0  0  0  0  0  0  0  0  0  0
    2.7500   13.8090   -1.6310 C   0  0  1  0  0  0  0  0  0  0  0  0
    2.2520   13.1470   -2.9550 C   0  0  0  0  0  0  0  0  0  0  0  0
    2.3890   12.9420   -0.3810 C   0  0  2  0  0  0  0  0  0  0  0  0
    2.9390   11.5050   -0.4020 C   0  0  0  0  0  0  0  0  0  0  0  0
    2.0390   10.4860   -1.0190 C   0  0  0  0  0  0  0  0  0  0  0  0
    0.7290   10.6540   -1.2770 C   0  0  0  0  0  0  0  0  0  0  0  0
   -0.0000   11.9350   -0.8520 C   0  0  1  0  0  0  0  0  0  0  0  0
   -1.3440   11.5650   -0.1710 C   0  0  0  0  0  0  0  0  0  0  0  0
   -2.2120   10.6610   -1.0410 C   0  0  0  0  0  0  0  0  0  0  0  0
   -1.4740    9.3730   -1.3950 C   0  0  2  0  0  0  0  0  0  0  0  0
   -1.2860    8.6070   -0.2010 O   0  0  0  0  0  0  0  0  0  0  0  0
   -0.1010    9.6210   -2.0790 C   0  0  0  0  0  0  0  0  0  0  0  0
   -0.3230   10.1780   -3.5070 C   0  0  0  0  0  0  0  0  0  0  0  0
    0.6010    8.2470   -2.2540 C   0  0  0  0  0  0  0  0  0  0  0  0
    0.8540   12.9670    0.0040 C   0  0  1  0  0  0  0  0  0  0  0  0
    0.7680   12.6030    1.5170 C   0  0  0  0  0  0  0  0  0  0  0  0
    0.2240   14.4030   -0.1440 C   0  0  0  0  0  0  0  0  0  0  0  0
    0.7090   15.2560   -1.3310 C   0  0  0  0  0  0  0  0  0  0  0  0
    2.2390   15.2780   -1.4010 C   0  0  2  0  0  0  0  0  0  0  0  0
    2.7690   15.9580   -0.0920 C   0  0  0  0  0  0  0  0  0  0  0  0
    2.7597   17.3377   -0.4290 H   0  0  0  0  0  0  0  0  0  0  0  0
    4.3038   18.0371   -1.0232 H   0  0  0  0  0  0  0  0  0  0  0  0
    2.8083   19.0321   -1.0232 H   0  0  0  0  0  0  0  0  0  0  0  0
    3.6775   17.9091   -3.2469 H   0  0  0  0  0  0  0  0  0  0  0  0
    1.6978   18.4925   -4.1019 H   0  0  0  0  0  0  0  0  0  0  0  0
    0.8263   17.2535   -3.0779 H   0  0  0  0  0  0  0  0  0  0  0  0
    1.6990   19.4650   -1.4416 H   0  0  0  0  0  0  0  0  0  0  0  0
    0.7251   20.0553   -2.8527 H   0  0  0  0  0  0  0  0  0  0  0  0
   -0.4177   17.9197   -2.2393 H   0  0  0  0  0  0  0  0  0  0  0  0
    0.2085   19.2709    1.9180 H   0  0  0  0  0  0  0  0  0  0  0  0
    1.4689   18.9318    0.6839 H   0  0  0  0  0  0  0  0  0  0  0  0
    0.6140   20.5116    0.6839 H   0  0  0  0  0  0  0  0  0  0  0  0
   -1.4868   18.0546    1.6879 H   0  0  0  0  0  0  0  0  0  0  0  0
   -2.5698   18.3101    0.2778 H   0  0  0  0  0  0  0  0  0  0  0  0
   -1.4021   16.9451    0.2778 H   0  0  0  0  0  0  0  0  0  0  0  0
    2.2530   15.8510   -3.5100 H   0  0  0  0  0  0  0  0  0  0  0  0
    4.5639   15.1815   -3.7280 H   0  0  0  0  0  0  0  0  0  0  0  0
    5.0441   16.0893   -2.2780 H   0  0  0  0  0  0  0  0  0  0  0  0
    4.7142   13.2552   -2.4301 H   0  0  0  0  0  0  0  0  0  0  0  0
    4.8155   14.1582   -0.9208 H   0  0  0  0  0  0  0  0  0  0  0  0
    1.6066   12.2890   -2.7157 H   0  0  0  0  0  0  0  0  0  0  0  0
    1.6816   13.8828   -3.5409 H   0  0  0  0  0  0  0  0  0  0  0  0
    3.1171   12.8029   -3.5409 H   0  0  0  0  0  0  0  0  0  0  0  0
    2.9297   13.4572    0.4266 H   0  0  0  0  0  0  0  0  0  0  0  0
    3.8831   11.5108   -0.9665 H   0  0  0  0  0  0  0  0  0  0  0  0
    3.0566   11.2091    0.6509 H   0  0  0  0  0  0  0  0  0  0  0  0
    2.4843    9.5160   -1.2852 H   0  0  0  0  0  0  0  0  0  0  0  0
   -0.1933   12.4962   -1.7781 H   0  0  0  0  0  0  0  0  0  0  0  0
   -1.1288   11.0441    0.7737 H   0  0  0  0  0  0  0  0  0  0  0  0
   -1.9002   12.4987   -0.0013 H   0  0  0  0  0  0  0  0  0  0  0  0
   -3.1322   10.4098   -0.4932 H   0  0  0  0  0  0  0  0  0  0  0  0
   -2.4525   11.1952   -1.9720 H   0  0  0  0  0  0  0  0  0  0  0  0
   -2.0923    8.8281   -2.1236 H   0  0  0  0  0  0  0  0  0  0  0  0
   -1.4540    7.6750   -0.4200 H   0  0  0  0  0  0  0  0  0  0  0  0
   -0.7296   11.1981   -3.4436 H   0  0  0  0  0  0  0  0  0  0  0  0
    0.6358   10.1983   -4.0458 H   0  0  0  0  0  0  0  0  0  0  0  0
   -1.0329    9.5332   -4.0458 H   0  0  0  0  0  0  0  0  0  0  0  0
    0.8199    7.8185   -1.2648 H   0  0  0  0  0  0  0  0  0  0  0  0
   -0.0596    7.5660   -2.8106 H   0  0  0  0  0  0  0  0  0  0  0  0
    1.5400    8.3832   -2.8106 H   0  0  0  0  0  0  0  0  0  0  0  0
    0.9793   13.4972    2.1218 H   0  0  0  0  0  0  0  0  0  0  0  0
   -0.2421   12.2340    1.7485 H   0  0  0  0  0  0  0  0  0  0  0  0
    1.5061   11.8209    1.7485 H   0  0  0  0  0  0  0  0  0  0  0  0
   -0.8644   14.2799   -0.2456 H   0  0  0  0  0  0  0  0  0  0  0  0
    0.5445   14.9515    0.7540 H   0  0  0  0  0  0  0  0  0  0  0  0
    0.3121   14.8317   -2.2650 H   0  0  0  0  0  0  0  0  0  0  0  0
    0.3492   16.2863   -1.1928 H   0  0  0  0  0  0  0  0  0  0  0  0
    2.3605   15.4339    0.7847 H   0  0  0  0  0  0  0  0  0  0  0  0
    3.8676   15.9065   -0.0710 H   0  0  0  0  0  0  0  0  0  0  0  0
    2.4508   17.0108   -0.0710 H   0  0  0  0  0  0  0  0  0  0  0  0
  1  2  1  0
  2  3  1  0
  3  4  1  0
  4  5  1  0
  5  6  1  0
  6  7  1  0
  7  8  1  0
  7  9  1  0
  2 10  1  0
 10 11  1  0
 11 12  1  0
 12 13  1  0
 13 14  1  6
 13 15  1  0
 15 16  1  0
 16 17  1  0
 17 18  2  0
 18 19  1  0
 19 20  1  0
 20 21  1  0
 21 22  1  0
 22 23  1  0
 22 24  1  0
 24 25  1  0
 24 26  1  0
 19 27  1  0
 27 28  1  1
 27 29  1  0
 29 30  1  0
 30 31  1  0
 31 32  1  1
  7  5  1  0
 31 10  1  0
 31 13  1  0
 27 15  1  0
 24 18  1  0
  1 33  1  0
  1 34  1  0
  1 35  1  0
  2 36  1  6
  3 37  1  0
  3 38  1  0
  4 39  1  0
  4 40  1  0
  5 41  1  6
  8 42  1  0
  8 43  1  0
  8 44  1  0
  9 45  1  0
  9 46  1  0
  9 47  1  0
 10 48  1  6
 11 49  1  0
 11 50  1  0
 12 51  1  0
 12 52  1  0
 14 53  1  0
 14 54  1  0
 14 55  1  0
 15 56  1  1
 16 57  1  0
 16 58  1  0
 17 59  1  0
 19 60  1  6
 20 61  1  0
 20 62  1  0
 21 63  1  0
 21 64  1  0
 22 65  1  6
 23 66  1  0
 25 67  1  0
 25 68  1  0
 25 69  1  0
 26 70  1  0
 26 71  1  0
 26 72  1  0
 28 73  1  0
 28 74  1  0
 28 75  1  0
 29 76  1  0
 29 77  1  0
 30 78  1  0
 30 79  1  0
 32 80  1  0
 32 81  1  0
 32 82  1  0
M  END
>  <meeko>  (8) 
{"is_sidechain": [false], "intermolecular_energy": 2.731, "internal_energy": -0.839}

$$$$
EPH_relaxed_0001_pdb2pqr_Repair_287_r2_0001_out
     RDKit          3D

 82 86  0  0  0  0  0  0  0  0999 V2000
    0.6940    9.0490   -1.7770 C   0  0  0  0  0  0  0  0  0  0  0  0
    1.3850   10.0750   -2.6810 C   0  0  2  0  0  0  0  0  0  0  0  0
    2.8900   10.1990   -2.3730 C   0  0  0  0  0  0  0  0  0  0  0  0
    3.7440   10.5320   -3.6000 C   0  0  0  0  0  0  0  0  0  0  0  0
    5.1580   10.8540   -3.2210 C   0  0  2  0  0  0  0  0  0  0  0  0
    5.6750   12.0560   -3.8070 O   0  0  0  0  0  0  0  0  0  0  0  0
    6.3130   10.8310   -4.2040 C   0  0  0  0  0  0  0  0  0  0  0  0
    6.1060   10.4770   -5.6440 C   0  0  0  0  0  0  0  0  0  0  0  0
    7.7030   10.6750   -3.6710 C   0  0  0  0  0  0  0  0  0  0  0  0
    0.7090   11.4330   -2.5360 C   0  0  1  0  0  0  0  0  0  0  0  0
   -0.5780   11.3710   -1.6700 C   0  0  0  0  0  0  0  0  0  0  0  0
   -0.6530   12.7060   -0.8850 C   0  0  0  0  0  0  0  0  0  0  0  0
    0.3960   13.6180   -1.5640 C   0  0  1  0  0  0  0  0  0  0  0  0
   -0.3210   14.1780   -2.8330 C   0  0  0  0  0  0  0  0  0  0  0  0
    0.9880   14.7650   -0.6820 C   0  0  2  0  0  0  0  0  0  0  0  0
   -0.0320   15.8100   -0.1990 C   0  0  0  0  0  0  0  0  0  0  0  0
   -0.2200   16.9830   -1.1030 C   0  0  0  0  0  0  0  0  0  0  0  0
    0.6030   17.3360   -2.1080 C   0  0  0  0  0  0  0  0  0  0  0  0
    1.9120   16.5760   -2.3580 C   0  0  1  0  0  0  0  0  0  0  0  0
    3.0660   17.5900   -2.5720 C   0  0  0  0  0  0  0  0  0  0  0  0
    2.7600   18.6010   -3.6720 C   0  0  0  0  0  0  0  0  0  0  0  0
    1.4830   19.3770   -3.3600 C   0  0  2  0  0  0  0  0  0  0  0  0
    1.7100   20.1940   -2.2070 O   0  0  0  0  0  0  0  0  0  0  0  0
    0.2520   18.4590   -3.1150 C   0  0  0  0  0  0  0  0  0  0  0  0
   -0.1790   17.8000   -4.4480 C   0  0  0  0  0  0  0  0  0  0  0  0
   -0.9330   19.3580   -2.6710 C   0  0  0  0  0  0  0  0  0  0  0  0
    2.2760   15.4530   -1.2930 C   0  0  1  0  0  0  0  0  0  0  0  0
    3.0530   16.0850   -0.0980 C   0  0  0  0  0  0  0  0  0  0  0  0
    3.2520   14.4120   -1.9570 C   0  0  0  0  0  0  0  0  0  0  0  0
    2.6050   13.2360   -2.7130 C   0  0  0  0  0  0  0  0  0  0  0  0
    1.5240   12.5650   -1.8610 C   0  0  2  0  0  0  0  0  0  0  0  0
    2.2190   11.9720   -0.5880 C   0  0  0  0  0  0  0  0  0  0  0  0
    0.8705    9.3110   -0.7233 H   0  0  0  0  0  0  0  0  0  0  0  0
   -0.3872    9.0514   -1.9793 H   0  0  0  0  0  0  0  0  0  0  0  0
    1.1027    8.0480   -1.9793 H   0  0  0  0  0  0  0  0  0  0  0  0
    1.2890    9.7212   -3.7181 H   0  0  0  0  0  0  0  0  0  0  0  0
    3.0274   10.9961   -1.6275 H   0  0  0  0  0  0  0  0  0  0  0  0
    3.2248    9.2180   -2.0049 H   0  0  0  0  0  0  0  0  0  0  0  0
    3.7453    9.6665   -4.2789 H   0  0  0  0  0  0  0  0  0  0  0  0
    3.3105   11.4166   -4.0895 H   0  0  0  0  0  0  0  0  0  0  0  0
    5.0229   10.3941   -2.2309 H   0  0  0  0  0  0  0  0  0  0  0  0
    5.5518    9.5293   -5.7126 H   0  0  0  0  0  0  0  0  0  0  0  0
    5.5317   11.2742   -6.1387 H   0  0  0  0  0  0  0  0  0  0  0  0
    7.0824   10.3675   -6.1387 H   0  0  0  0  0  0  0  0  0  0  0  0
    7.6765   10.6780   -2.5713 H   0  0  0  0  0  0  0  0  0  0  0  0
    8.1268    9.7237   -4.0250 H   0  0  0  0  0  0  0  0  0  0  0  0
    8.3272   11.5087   -4.0250 H   0  0  0  0  0  0  0  0  0  0  0  0
    0.5429   11.6700   -3.5973 H   0  0  0  0  0  0  0  0  0  0  0  0
   -1.4629   11.2598   -2.3138 H   0  0  0  0  0  0  0  0  0  0  0  0
   -0.5523   10.5107   -0.9850 H   0  0  0  0  0  0  0  0  0  0  0  0
   -1.6582   13.1460   -0.9624 H   0  0  0  0  0  0  0  0  0  0  0  0
   -0.4550   12.5702    0.1885 H   0  0  0  0  0  0  0  0  0  0  0  0
   -1.1536   14.8283   -2.5267 H   0  0  0  0  0  0  0  0  0  0  0  0
    0.3956   14.7579   -3.4331 H   0  0  0  0  0  0  0  0  0  0  0  0
   -0.7101   13.3423   -3.4331 H   0  0  0  0  0  0  0  0  0  0  0  0
    1.3116   14.2255    0.2203 H   0  0  0  0  0  0  0  0  0  0  0  0
   -1.0046   15.3087   -0.0860 H   0  0  0  0  0  0  0  0  0  0  0  0
    0.3681   16.2130    0.7431 H   0  0  0  0  0  0  0  0  0  0  0  0
   -1.1062   17.6122   -0.9335 H   0  0  0  0  0  0  0  0  0  0  0  0
    1.7538   15.9910   -3.2760 H   0  0  0  0  0  0  0  0  0  0  0  0
    3.2367   18.1336   -1.6311 H   0  0  0  0  0  0  0  0  0  0  0  0
    3.9567   17.0221   -2.8789 H   0  0  0  0  0  0  0  0  0  0  0  0
    3.5992   19.3073   -3.7554 H   0  0  0  0  0  0  0  0  0  0  0  0
    2.6186   18.0582   -4.6183 H   0  0  0  0  0  0  0  0  0  0  0  0
    1.2465   19.9905   -4.2419 H   0  0  0  0  0  0  0  0  0  0  0  0
    2.6410   20.4750   -2.2240 H   0  0  0  0  0  0  0  0  0  0  0  0
   -0.7698   16.8966   -4.2362 H   0  0  0  0  0  0  0  0  0  0  0  0
   -0.7884   18.5092   -5.0274 H   0  0  0  0  0  0  0  0  0  0  0  0
    0.7150   17.5260   -5.0274 H   0  0  0  0  0  0  0  0  0  0  0  0
   -0.9766   19.3911   -1.5724 H   0  0  0  0  0  0  0  0  0  0  0  0
   -0.7882   20.3755   -3.0630 H   0  0  0  0  0  0  0  0  0  0  0  0
   -1.8739   18.9445   -3.0630 H   0  0  0  0  0  0  0  0  0  0  0  0
    2.6191   15.7321    0.8492 H   0  0  0  0  0  0  0  0  0  0  0  0
    4.1108   15.7876   -0.1501 H   0  0  0  0  0  0  0  0  0  0  0  0
    2.9773   17.1812   -0.1501 H   0  0  0  0  0  0  0  0  0  0  0  0
    3.8852   14.9585   -2.6714 H   0  0  0  0  0  0  0  0  0  0  0  0
    3.7943   13.9510   -1.1183 H   0  0  0  0  0  0  0  0  0  0  0  0
    2.1498   13.6118   -3.6412 H   0  0  0  0  0  0  0  0  0  0  0  0
    3.3843   12.4934   -2.9394 H   0  0  0  0  0  0  0  0  0  0  0  0
    1.7407   12.3801    0.3146 H   0  0  0  0  0  0  0  0  0  0  0  0
    2.1191   10.8766   -0.5925 H   0  0  0  0  0  0  0  0  0  0  0  0
    3.2851   12.2430   -0.5925 H   0  0  0  0  0  0  0  0  0  0  0  0
  1  2  1  0
  2  3  1  0
  3  4  1  0
  4  5  1  0
  5  6  1  0
  6  7  1  0
  7  8  1  0
  7  9  1  0
  2 10  1  0
 10 11  1  0
 11 12  1  0
 12 13  1  0
 13 14  1  6
 13 15  1  0
 15 16  1  0
 16 17  1  0
 17 18  2  0
 18 19  1  0
 19 20  1  0
 20 21  1  0
 21 22  1  0
 22 23  1  0
 22 24  1  0
 24 25  1  0
 24 26  1  0
 19 27  1  0
 27 28  1  1
 27 29  1  0
 29 30  1  0
 30 31  1  0
 31 32  1  1
  7  5  1  0
 31 10  1  0
 31 13  1  0
 27 15  1  0
 24 18  1  0
  1 33  1  0
  1 34  1  0
  1 35  1  0
  2 36  1  6
  3 37  1  0
  3 38  1  0
  4 39  1  0
  4 40  1  0
  5 41  1  1
  8 42  1  0
  8 43  1  0
  8 44  1  0
  9 45  1  0
  9 46  1  0
  9 47  1  0
 10 48  1  6
 11 49  1  0
 11 50  1  0
 12 51  1  0
 12 52  1  0
 14 53  1  0
 14 54  1  0
 14 55  1  0
 15 56  1  1
 16 57  1  0
 16 58  1  0
 17 59  1  0
 19 60  1  6
 20 61  1  0
 20 62  1  0
 21 63  1  0
 21 64  1  0
 22 65  1  6
 23 66  1  0
 25 67  1  0
 25 68  1  0
 25 69  1  0
 26 70  1  0
 26 71  1  0
 26 72  1  0
 28 73  1  0
 28 74  1  0
 28 75  1  0
 29 76  1  0
 29 77  1  0
 30 78  1  0
 30 79  1  0
 32 80  1  0
 32 81  1  0
 32 82  1  0
M  END
>  <meeko>  (9) 
{"is_sidechain": [false], "intermolecular_energy": 2.731, "internal_energy": -0.839}

$$$$
EPH_relaxed_0001_pdb2pqr_Repair_287_r2_0001_out
     RDKit          3D

 82 86  0  0  0  0  0  0  0  0999 V2000
   -2.5240    7.7650   -2.8600 C   0  0  0  0  0  0  0  0  0  0  0  0
   -2.8540    8.0890   -1.4000 C   0  0  2  0  0  0  0  0  0  0  0  0
   -4.3740    8.1560   -1.1490 C   0  0  0  0  0  0  0  0  0  0  0  0
   -5.0950    6.8270   -1.3850 C   0  0  0  0  0  0  0  0  0  0  0  0
   -6.1560    6.9500   -2.4370 C   0  0  2  0  0  0  0  0  0  0  0  0
   -6.9240    8.1590   -2.3730 O   0  0  0  0  0  0  0  0  0  0  0  0
   -7.6420    6.9370   -2.1330 C   0  0  0  0  0  0  0  0  0  0  0  0
   -8.1500    6.7950   -0.7320 C   0  0  0  0  0  0  0  0  0  0  0  0
   -8.5940    6.5720   -3.2290 C   0  0  0  0  0  0  0  0  0  0  0  0
   -2.2010    9.4080   -1.0000 C   0  0  1  0  0  0  0  0  0  0  0  0
   -2.6110    9.8690    0.4230 C   0  0  0  0  0  0  0  0  0  0  0  0
   -1.3730   10.5700    1.0400 C   0  0  0  0  0  0  0  0  0  0  0  0
   -0.4120   10.7840   -0.1530 C   0  0  1  0  0  0  0  0  0  0  0  0
   -0.9390   12.0670   -0.8680 C   0  0  0  0  0  0  0  0  0  0  0  0
    1.1070   10.9010    0.1970 C   0  0  2  0  0  0  0  0  0  0  0  0
    1.4820   12.0990    1.0870 C   0  0  0  0  0  0  0  0  0  0  0  0
    1.8410   13.3500    0.3550 C   0  0  0  0  0  0  0  0  0  0  0  0
    2.1400   13.4300   -0.9550 C   0  0  0  0  0  0  0  0  0  0  0  0
    2.2290   12.1680   -1.8220 C   0  0  1  0  0  0  0  0  0  0  0  0
    3.5160   12.2240   -2.6870 C   0  0  0  0  0  0  0  0  0  0  0  0
    3.6120   13.5050   -3.5110 C   0  0  0  0  0  0  0  0  0  0  0  0
    3.5780   14.7360   -2.6090 C   0  0  2  0  0  0  0  0  0  0  0  0
    4.7680   14.7590   -1.8150 O   0  0  0  0  0  0  0  0  0  0  0  0
    2.3300   14.7840   -1.6840 C   0  0  0  0  0  0  0  0  0  0  0  0
    1.0640   15.0630   -2.5300 C   0  0  0  0  0  0  0  0  0  0  0  0
    2.4900   15.9980   -0.7290 C   0  0  0  0  0  0  0  0  0  0  0  0
    2.0710   10.7860   -1.0530 C   0  0  1  0  0  0  0  0  0  0  0  0
    3.4550   10.3200   -0.5070 C   0  0  0  0  0  0  0  0  0  0  0  0
    1.6010    9.6810   -2.0710 C   0  0  0  0  0  0  0  0  0  0  0  0
    0.0820    9.5340   -2.2840 C   0  0  0  0  0  0  0  0  0  0  0  0
   -0.6540    9.4470   -0.9430 C   0  0  2  0  0  0  0  0  0  0  0  0
   -0.1600    8.1530   -0.2100 C   0  0  0  0  0  0  0  0  0  0  0  0
   -1.7395    6.9948   -2.8964 H   0  0  0  0  0  0  0  0  0  0  0  0
   -3.4270    7.3929   -3.3661 H   0  0  0  0  0  0  0  0  0  0  0  0
   -2.1685    8.6746   -3.3661 H   0  0  0  0  0  0  0  0  0  0  0  0
   -2.4532    7.2727   -0.7811 H   0  0  0  0  0  0  0  0  0  0  0  0
   -4.5406    8.4611   -0.1054 H   0  0  0  0  0  0  0  0  0  0  0  0
   -4.7873    8.8784   -1.8682 H   0  0  0  0  0  0  0  0  0  0  0  0
   -4.3596    6.0749   -1.7068 H   0  0  0  0  0  0  0  0  0  0  0  0
   -5.5791    6.5280   -0.4436 H   0  0  0  0  0  0  0  0  0  0  0  0
   -5.5451    6.3807   -3.1531 H   0  0  0  0  0  0  0  0  0  0  0  0
   -7.3397    7.0215   -0.0234 H   0  0  0  0  0  0  0  0  0  0  0  0
   -8.9836    7.4946   -0.5716 H   0  0  0  0  0  0  0  0  0  0  0  0
   -8.5000    5.7646   -0.5716 H   0  0  0  0  0  0  0  0  0  0  0  0
   -9.5362    6.2108   -2.7911 H   0  0  0  0  0  0  0  0  0  0  0  0
   -8.7942    7.4571   -3.8507 H   0  0  0  0  0  0  0  0  0  0  0  0
   -8.1512    5.7799   -3.8507 H   0  0  0  0  0  0  0  0  0  0  0  0
   -2.5631   10.0488   -1.8175 H   0  0  0  0  0  0  0  0  0  0  0  0
   -3.4548   10.5723    0.3649 H   0  0  0  0  0  0  0  0  0  0  0  0
   -2.9290    9.0147    1.0387 H   0  0  0  0  0  0  0  0  0  0  0  0
   -1.6557   11.5337    1.4888 H   0  0  0  0  0  0  0  0  0  0  0  0
   -0.9144    9.9759    1.8442 H   0  0  0  0  0  0  0  0  0  0  0  0
   -1.2434   12.8080   -0.1142 H   0  0  0  0  0  0  0  0  0  0  0  0
   -0.1418   12.4899   -1.4969 H   0  0  0  0  0  0  0  0  0  0  0  0
   -1.8033   11.8074   -1.4969 H   0  0  0  0  0  0  0  0  0  0  0  0
    1.2757   10.0063    0.8142 H   0  0  0  0  0  0  0  0  0  0  0  0
    0.6235   12.3206    1.7380 H   0  0  0  0  0  0  0  0  0  0  0  0
    2.3860   11.7983    1.6369 H   0  0  0  0  0  0  0  0  0  0  0  0
    1.8630   14.2845    0.9349 H   0  0  0  0  0  0  0  0  0  0  0  0
    1.3413   12.1820   -2.4715 H   0  0  0  0  0  0  0  0  0  0  0  0
    4.3905   12.1660   -2.0222 H   0  0  0  0  0  0  0  0  0  0  0  0
    3.4839   11.3773   -3.3885 H   0  0  0  0  0  0  0  0  0  0  0  0
    4.5550   13.4993   -4.0773 H   0  0  0  0  0  0  0  0  0  0  0  0
    2.7528   13.5474   -4.1965 H   0  0  0  0  0  0  0  0  0  0  0  0
    3.5186   15.6205   -3.2603 H   0  0  0  0  0  0  0  0  0  0  0  0
    4.4990   14.7360   -0.8810 H   0  0  0  0  0  0  0  0  0  0  0  0
    0.2106   15.2511   -1.8619 H   0  0  0  0  0  0  0  0  0  0  0  0
    1.2342   15.9452   -3.1646 H   0  0  0  0  0  0  0  0  0  0  0  0
    0.8476   14.1910   -3.1646 H   0  0  0  0  0  0  0  0  0  0  0  0
    2.4444   15.6523    0.3143 H   0  0  0  0  0  0  0  0  0  0  0  0
    3.4599   16.4835   -0.9124 H   0  0  0  0  0  0  0  0  0  0  0  0
    1.6790   16.7182   -0.9124 H   0  0  0  0  0  0  0  0  0  0  0  0
    3.4363   10.3263    0.5928 H   0  0  0  0  0  0  0  0  0  0  0  0
    3.6660    9.3013   -0.8643 H   0  0  0  0  0  0  0  0  0  0  0  0
    4.2392   11.0036   -0.8643 H   0  0  0  0  0  0  0  0  0  0  0  0
    2.0530    9.9134   -3.0466 H   0  0  0  0  0  0  0  0  0  0  0  0
    1.9236    8.7266   -1.6293 H   0  0  0  0  0  0  0  0  0  0  0  0
   -0.2891   10.4061   -2.8422 H   0  0  0  0  0  0  0  0  0  0  0  0
   -0.1051    8.6080   -2.8475 H   0  0  0  0  0  0  0  0  0  0  0  0
   -0.2174    8.3034    0.8782 H   0  0  0  0  0  0  0  0  0  0  0  0
   -0.7970    7.3033   -0.4968 H   0  0  0  0  0  0  0  0  0  0  0  0
    0.8812    7.9440   -0.4968 H   0  0  0  0  0  0  0  0  0  0  0  0
  1  2  1  0
  2  3  1  0
  3  4  1  0
  4  5  1  0
  5  6  1  0
  6  7  1  0
  7  8  1  0
  7  9  1  0
  2 10  1  0
 10 11  1  0
 11 12  1  0
 12 13  1  0
 13 14  1  6
 13 15  1  0
 15 16  1  0
 16 17  1  0
 17 18  2  0
 18 19  1  0
 19 20  1  0
 20 21  1  0
 21 22  1  0
 22 23  1  0
 22 24  1  0
 24 25  1  0
 24 26  1  0
 19 27  1  0
 27 28  1  1
 27 29  1  0
 29 30  1  0
 30 31  1  0
 31 32  1  1
  7  5  1  0
 31 10  1  0
 31 13  1  0
 27 15  1  0
 24 18  1  0
  1 33  1  0
  1 34  1  0
  1 35  1  0
  2 36  1  1
  3 37  1  0
  3 38  1  0
  4 39  1  0
  4 40  1  0
  5 41  1  6
  8 42  1  0
  8 43  1  0
  8 44  1  0
  9 45  1  0
  9 46  1  0
  9 47  1  0
 10 48  1  6
 11 49  1  0
 11 50  1  0
 12 51  1  0
 12 52  1  0
 14 53  1  0
 14 54  1  0
 14 55  1  0
 15 56  1  1
 16 57  1  0
 16 58  1  0
 17 59  1  0
 19 60  1  6
 20 61  1  0
 20 62  1  0
 21 63  1  0
 21 64  1  0
 22 65  1  6
 23 66  1  0
 25 67  1  0
 25 68  1  0
 25 69  1  0
 26 70  1  0
 26 71  1  0
 26 72  1  0
 28 73  1  0
 28 74  1  0
 28 75  1  0
 29 76  1  0
 29 77  1  0
 30 78  1  0
 30 79  1  0
 32 80  1  0
 32 81  1  0
 32 82  1  0
M  END
>  <meeko>  (10) 
{"is_sidechain": [false], "intermolecular_energy": 2.731, "internal_energy": -0.839}

$$$$
EPH_relaxed_0001_pdb2pqr_Repair_287_r2_0001_out
     RDKit          3D

 82 86  0  0  0  0  0  0  0  0999 V2000
    4.3330   17.5710   -2.6220 C   0  0  0  0  0  0  0  0  0  0  0  0
    2.9520   17.0920   -2.1670 C   0  0  2  0  0  0  0  0  0  0  0  0
    2.6450   17.5030   -0.7130 C   0  0  0  0  0  0  0  0  0  0  0  0
    3.8590   18.0540    0.0400 C   0  0  0  0  0  0  0  0  0  0  0  0
    3.4630   18.7010    1.3330 C   0  0  2  0  0  0  0  0  0  0  0  0
    3.7740   20.0970    1.4250 O   0  0  0  0  0  0  0  0  0  0  0  0
    4.4630   19.2330    2.3430 C   0  0  0  0  0  0  0  0  0  0  0  0
    5.9370   19.1410    2.1040 C   0  0  0  0  0  0  0  0  0  0  0  0
    4.0250   19.3940    3.7660 C   0  0  0  0  0  0  0  0  0  0  0  0
    2.8530   15.5780   -2.3110 C   0  0  1  0  0  0  0  0  0  0  0  0
    4.2350   14.9070   -2.5310 C   0  0  0  0  0  0  0  0  0  0  0  0
    4.1850   13.5350   -1.8110 C   0  0  0  0  0  0  0  0  0  0  0  0
    2.6880   13.3170   -1.4900 C   0  0  1  0  0  0  0  0  0  0  0  0
    2.0660   12.7840   -2.8180 C   0  0  0  0  0  0  0  0  0  0  0  0
    2.3710   12.3730   -0.2840 C   0  0  2  0  0  0  0  0  0  0  0  0
    2.8440   10.9180   -0.4520 C   0  0  0  0  0  0  0  0  0  0  0  0
    1.8520    9.9930   -1.0750 C   0  0  0  0  0  0  0  0  0  0  0  0
    0.5380   10.2400   -1.2240 C   0  0  0  0  0  0  0  0  0  0  0  0
   -0.0930   11.5160   -0.6530 C   0  0  1  0  0  0  0  0  0  0  0  0
   -1.4040   11.1560    0.0960 C   0  0  0  0  0  0  0  0  0  0  0  0
   -2.3750   10.3640   -0.7740 C   0  0  0  0  0  0  0  0  0  0  0  0
   -1.7310    9.0740   -1.2750 C   0  0  2  0  0  0  0  0  0  0  0  0
   -1.5000    8.2100   -0.1580 O   0  0  0  0  0  0  0  0  0  0  0  0
   -0.3970    9.3110   -2.0370 C   0  0  0  0  0  0  0  0  0  0  0  0
   -0.6890    9.9870   -3.4000 C   0  0  0  0  0  0  0  0  0  0  0  0
    0.2190    7.9240   -2.3640 C   0  0  0  0  0  0  0  0  0  0  0  0
    0.8700   12.4390    0.2120 C   0  0  1  0  0  0  0  0  0  0  0  0
    0.8710   11.9620    1.6970 C   0  0  0  0  0  0  0  0  0  0  0  0
    0.3050   13.9080    0.2180 C   0  0  0  0  0  0  0  0  0  0  0  0
    0.7510   14.8280   -0.9340 C   0  0  0  0  0  0  0  0  0  0  0  0
    2.2710   14.7850   -1.1140 C   0  0  2  0  0  0  0  0  0  0  0  0
    2.9240   15.3370    0.1990 C   0  0  0  0  0  0  0  0  0  0  0  0
    4.9550   17.7867   -1.7408 H   0  0  0  0  0  0  0  0  0  0  0  0
    4.8125   16.7867   -3.2261 H   0  0  0  0  0  0  0  0  0  0  0  0
    4.2238   18.4838   -3.2261 H   0  0  0  0  0  0  0  0  0  0  0  0
    2.2049   17.5767   -2.8126 H   0  0  0  0  0  0  0  0  0  0  0  0
    1.8647   18.2782   -0.7286 H   0  0  0  0  0  0  0  0  0  0  0  0
    2.3232   16.5944   -0.1831 H   0  0  0  0  0  0  0  0  0  0  0  0
    4.5519   17.2267    0.2530 H   0  0  0  0  0  0  0  0  0  0  0  0
    4.3375   18.8163   -0.5923 H   0  0  0  0  0  0  0  0  0  0  0  0
    2.6006   18.0255    1.4335 H   0  0  0  0  0  0  0  0  0  0  0  0
    6.4636   19.1081    3.0692 H   0  0  0  0  0  0  0  0  0  0  0  0
    6.1596   18.2272    1.5335 H   0  0  0  0  0  0  0  0  0  0  0  0
    6.2715   20.0200    1.5335 H   0  0  0  0  0  0  0  0  0  0  0  0
    4.8427   19.0934    4.4376 H   0  0  0  0  0  0  0  0  0  0  0  0
    3.7652   20.4464    3.9528 H   0  0  0  0  0  0  0  0  0  0  0  0
    3.1454   18.7604    3.9528 H   0  0  0  0  0  0  0  0  0  0  0  0
    2.1671   15.5198   -3.1690 H   0  0  0  0  0  0  0  0  0  0  0  0
    4.4201   14.7643   -3.6059 H   0  0  0  0  0  0  0  0  0  0  0  0
    5.0465   15.5334   -2.1320 H   0  0  0  0  0  0  0  0  0  0  0  0
    4.5613   12.7375   -2.4686 H   0  0  0  0  0  0  0  0  0  0  0  0
    4.8125   13.5149   -0.9077 H   0  0  0  0  0  0  0  0  0  0  0  0
    1.2496   12.0844   -2.5856 H   0  0  0  0  0  0  0  0  0  0  0  0
    1.6705   13.6279   -3.4023 H   0  0  0  0  0  0  0  0  0  0  0  0
    2.8394   12.2639   -3.4023 H   0  0  0  0  0  0  0  0  0  0  0  0
    2.9921   12.7978    0.5184 H   0  0  0  0  0  0  0  0  0  0  0  0
    3.7454   10.9243   -1.0824 H   0  0  0  0  0  0  0  0  0  0  0  0
    3.0198   10.5359    0.5644 H   0  0  0  0  0  0  0  0  0  0  0  0
    2.2273    9.0270   -1.4437 H   0  0  0  0  0  0  0  0  0  0  0  0
   -0.3212   12.1553   -1.5186 H   0  0  0  0  0  0  0  0  0  0  0  0
   -1.1508   10.5533    0.9806 H   0  0  0  0  0  0  0  0  0  0  0  0
   -1.8983   12.0979    0.3764 H   0  0  0  0  0  0  0  0  0  0  0  0
   -3.2676   10.1143   -0.1816 H   0  0  0  0  0  0  0  0  0  0  0  0
   -2.6500   10.9797   -1.6431 H   0  0  0  0  0  0  0  0  0  0  0  0
   -2.4259    8.6161   -1.9943 H   0  0  0  0  0  0  0  0  0  0  0  0
   -1.7090    8.7090    0.6490 H   0  0  0  0  0  0  0  0  0  0  0  0
   -1.1199   10.9846   -3.2296 H   0  0  0  0  0  0  0  0  0  0  0  0
    0.2473   10.0843   -3.9691 H   0  0  0  0  0  0  0  0  0  0  0  0
   -1.4017    9.3720   -3.9691 H   0  0  0  0  0  0  0  0  0  0  0  0
    0.4532    7.3968   -1.4274 H   0  0  0  0  0  0  0  0  0  0  0  0
   -0.5007    7.3317   -2.9481 H   0  0  0  0  0  0  0  0  0  0  0  0
    1.1410    8.0608   -2.9481 H   0  0  0  0  0  0  0  0  0  0  0  0
    0.8692   12.8373    2.3633 H   0  0  0  0  0  0  0  0  0  0  0  0
   -0.0259   11.3543    1.8875 H   0  0  0  0  0  0  0  0  0  0  0  0
    1.7704   11.3580    1.8875 H   0  0  0  0  0  0  0  0  0  0  0  0
   -0.7926   13.8426    0.1858 H   0  0  0  0  0  0  0  0  0  0  0  0
    0.7126   14.3696    1.1295 H   0  0  0  0  0  0  0  0  0  0  0  0
    0.2690   14.4971   -1.8658 H   0  0  0  0  0  0  0  0  0  0  0  0
    0.4559   15.8598   -0.6926 H   0  0  0  0  0  0  0  0  0  0  0  0
    2.4131   14.9051    1.0722 H   0  0  0  0  0  0  0  0  0  0  0  0
    3.9885   15.0608    0.2233 H   0  0  0  0  0  0  0  0  0  0  0  0
    2.8288   16.4326    0.2233 H   0  0  0  0  0  0  0  0  0  0  0  0
  1  2  1  0
  2  3  1  0
  3  4  1  0
  4  5  1  0
  5  6  1  0
  6  7  1  0
  7  8  1  0
  7  9  1  0
  2 10  1  0
 10 11  1  0
 11 12  1  0
 12 13  1  0
 13 14  1  6
 13 15  1  0
 15 16  1  0
 16 17  1  0
 17 18  2  0
 18 19  1  0
 19 20  1  0
 20 21  1  0
 21 22  1  0
 22 23  1  0
 22 24  1  0
 24 25  1  0
 24 26  1  0
 19 27  1  0
 27 28  1  1
 27 29  1  0
 29 30  1  0
 30 31  1  0
 31 32  1  1
  7  5  1  0
 31 10  1  0
 31 13  1  0
 27 15  1  0
 24 18  1  0
  1 33  1  0
  1 34  1  0
  1 35  1  0
  2 36  1  6
  3 37  1  0
  3 38  1  0
  4 39  1  0
  4 40  1  0
  5 41  1  1
  8 42  1  0
  8 43  1  0
  8 44  1  0
  9 45  1  0
  9 46  1  0
  9 47  1  0
 10 48  1  6
 11 49  1  0
 11 50  1  0
 12 51  1  0
 12 52  1  0
 14 53  1  0
 14 54  1  0
 14 55  1  0
 15 56  1  1
 16 57  1  0
 16 58  1  0
 17 59  1  0
 19 60  1  6
 20 61  1  0
 20 62  1  0
 21 63  1  0
 21 64  1  0
 22 65  1  6
 23 66  1  0
 25 67  1  0
 25 68  1  0
 25 69  1  0
 26 70  1  0
 26 71  1  0
 26 72  1  0
 28 73  1  0
 28 74  1  0
 28 75  1  0
 29 76  1  0
 29 77  1  0
 30 78  1  0
 30 79  1  0
 32 80  1  0
 32 81  1  0
 32 82  1  0
M  END
>  <meeko>  (11) 
{"is_sidechain": [false], "intermolecular_energy": 2.731, "internal_energy": -0.839}

$$$$
EPH_relaxed_0001_pdb2pqr_Repair_287_r2_0001_out
     RDKit          3D

 82 86  0  0  0  0  0  0  0  0999 V2000
    4.5550   17.4090   -1.6400 C   0  0  0  0  0  0  0  0  0  0  0  0
    3.1600   17.0620   -2.1710 C   0  0  2  0  0  0  0  0  0  0  0  0
    2.0410   17.6090   -1.2620 C   0  0  0  0  0  0  0  0  0  0  0  0
    1.2140   18.7250   -1.9070 C   0  0  0  0  0  0  0  0  0  0  0  0
    0.1750   18.1770   -2.8380 C   0  0  2  0  0  0  0  0  0  0  0  0
    0.4760   16.8830   -3.3770 O   0  0  0  0  0  0  0  0  0  0  0  0
    0.4110   17.9630   -4.3220 C   0  0  0  0  0  0  0  0  0  0  0  0
    1.7240   18.2940   -4.9590 C   0  0  0  0  0  0  0  0  0  0  0  0
   -0.7750   17.8970   -5.2330 C   0  0  0  0  0  0  0  0  0  0  0  0
    3.0210   15.5520   -2.3180 C   0  0  1  0  0  0  0  0  0  0  0  0
    4.3840   14.8450   -2.5440 C   0  0  0  0  0  0  0  0  0  0  0  0
    4.3010   13.4730   -1.8260 C   0  0  0  0  0  0  0  0  0  0  0  0
    2.8000   13.2940   -1.5000 C   0  0  1  0  0  0  0  0  0  0  0  0
    2.1590   12.7800   -2.8270 C   0  0  0  0  0  0  0  0  0  0  0  0
    2.4620   12.3570   -0.2950 C   0  0  2  0  0  0  0  0  0  0  0  0
    2.8960   10.8910   -0.4670 C   0  0  0  0  0  0  0  0  0  0  0  0
    1.8780    9.9930   -1.0880 C   0  0  0  0  0  0  0  0  0  0  0  0
    0.5700   10.2750   -1.2320 C   0  0  0  0  0  0  0  0  0  0  0  0
   -0.0250   11.5670   -0.6560 C   0  0  1  0  0  0  0  0  0  0  0  0
   -1.3420   11.2390    0.0960 C   0  0  0  0  0  0  0  0  0  0  0  0
   -2.3370   10.4750   -0.7720 C   0  0  0  0  0  0  0  0  0  0  0  0
   -1.7290    9.1690   -1.2770 C   0  0  2  0  0  0  0  0  0  0  0  0
   -1.5170    8.2970   -0.1630 O   0  0  0  0  0  0  0  0  0  0  0  0
   -0.3920    9.3730   -2.0440 C   0  0  0  0  0  0  0  0  0  0  0  0
   -0.6710   10.0590   -3.4040 C   0  0  0  0  0  0  0  0  0  0  0  0
    0.1860    7.9700   -2.3760 C   0  0  0  0  0  0  0  0  0  0  0  0
    0.9650   12.4610    0.2070 C   0  0  1  0  0  0  0  0  0  0  0  0
    0.9580   11.9820    1.6910 C   0  0  0  0  0  0  0  0  0  0  0  0
    0.4390   13.9460    0.2180 C   0  0  0  0  0  0  0  0  0  0  0  0
    0.9050   14.8560   -0.9350 C   0  0  0  0  0  0  0  0  0  0  0  0
    2.4230   14.7730   -1.1200 C   0  0  2  0  0  0  0  0  0  0  0  0
    3.0950   15.3040    0.1920 C   0  0  0  0  0  0  0  0  0  0  0  0
    4.5400   17.4053   -0.5401 H   0  0  0  0  0  0  0  0  0  0  0  0
    5.2799   16.6638   -1.9994 H   0  0  0  0  0  0  0  0  0  0  0  0
    4.8463   18.4070   -1.9994 H   0  0  0  0  0  0  0  0  0  0  0  0
    3.0506   17.5423   -3.1545 H   0  0  0  0  0  0  0  0  0  0  0  0
    1.3652   16.7797   -1.0059 H   0  0  0  0  0  0  0  0  0  0  0  0
    2.5291   18.0416   -0.3763 H   0  0  0  0  0  0  0  0  0  0  0  0
    0.7143   19.3019   -1.1148 H   0  0  0  0  0  0  0  0  0  0  0  0
    1.8944   19.3634   -2.4897 H   0  0  0  0  0  0  0  0  0  0  0  0
   -0.6254   18.6895   -2.2842 H   0  0  0  0  0  0  0  0  0  0  0  0
    2.4738   18.4830   -4.1766 H   0  0  0  0  0  0  0  0  0  0  0  0
    2.0512   17.4502   -5.5843 H   0  0  0  0  0  0  0  0  0  0  0  0
    1.6121   19.1920   -5.5843 H   0  0  0  0  0  0  0  0  0  0  0  0
   -1.6957   17.8458   -4.6332 H   0  0  0  0  0  0  0  0  0  0  0  0
   -0.8003   18.7951   -5.8676 H   0  0  0  0  0  0  0  0  0  0  0  0
   -0.7005   17.0016   -5.8676 H   0  0  0  0  0  0  0  0  0  0  0  0
    2.3314   15.5133   -3.1741 H   0  0  0  0  0  0  0  0  0  0  0  0
    4.5614   14.6994   -3.6198 H   0  0  0  0  0  0  0  0  0  0  0  0
    5.2129   15.4491   -2.1466 H   0  0  0  0  0  0  0  0  0  0  0  0
    4.6538   12.6671   -2.4863 H   0  0  0  0  0  0  0  0  0  0  0  0
    4.9312   13.4346   -0.9252 H   0  0  0  0  0  0  0  0  0  0  0  0
    1.3205   12.1076   -2.5928 H   0  0  0  0  0  0  0  0  0  0  0  0
    1.7905   13.6357   -3.4117 H   0  0  0  0  0  0  0  0  0  0  0  0
    2.9142   12.2344   -3.4117 H   0  0  0  0  0  0  0  0  0  0  0  0
    3.0964   12.7647    0.5058 H   0  0  0  0  0  0  0  0  0  0  0  0
    3.7951   10.8748   -1.1006 H   0  0  0  0  0  0  0  0  0  0  0  0
    3.0652   10.5028    0.5482 H   0  0  0  0  0  0  0  0  0  0  0  0
    2.2266    9.0180   -1.4594 H   0  0  0  0  0  0  0  0  0  0  0  0
   -0.2392   12.2154   -1.5184 H   0  0  0  0  0  0  0  0  0  0  0  0
   -1.1014   10.6274    0.9781 H   0  0  0  0  0  0  0  0  0  0  0  0
   -1.8105   12.1928    0.3800 H   0  0  0  0  0  0  0  0  0  0  0  0
   -3.2340   10.2483   -0.1771 H   0  0  0  0  0  0  0  0  0  0  0  0
   -2.5986   11.0992   -1.6391 H   0  0  0  0  0  0  0  0  0  0  0  0
   -2.4385    8.7302   -1.9940 H   0  0  0  0  0  0  0  0  0  0  0  0
   -1.5300    7.3840   -0.4970 H   0  0  0  0  0  0  0  0  0  0  0  0
   -1.0802   11.0651   -3.2300 H   0  0  0  0  0  0  0  0  0  0  0  0
    0.2665   10.1379   -3.9740 H   0  0  0  0  0  0  0  0  0  0  0  0
   -1.3975    9.4612   -3.9740 H   0  0  0  0  0  0  0  0  0  0  0  0
    0.4069    7.4339   -1.4412 H   0  0  0  0  0  0  0  0  0  0  0  0
   -0.5502    7.3992   -2.9609 H   0  0  0  0  0  0  0  0  0  0  0  0
    1.1107    8.0834   -2.9609 H   0  0  0  0  0  0  0  0  0  0  0  0
    0.9708   12.8562    2.3585 H   0  0  0  0  0  0  0  0  0  0  0  0
    0.0511   11.3891    1.8806 H   0  0  0  0  0  0  0  0  0  0  0  0
    1.8472   11.3628    1.8806 H   0  0  0  0  0  0  0  0  0  0  0  0
   -0.6601   13.9101    0.1904 H   0  0  0  0  0  0  0  0  0  0  0  0
    0.8625   14.3949    1.1286 H   0  0  0  0  0  0  0  0  0  0  0  0
    0.4113   14.5391   -1.8655 H   0  0  0  0  0  0  0  0  0  0  0  0
    0.6377   15.8949   -0.6917 H   0  0  0  0  0  0  0  0  0  0  0  0
    2.5709   14.8899    1.0659 H   0  0  0  0  0  0  0  0  0  0  0  0
    4.1498   14.9928    0.2156 H   0  0  0  0  0  0  0  0  0  0  0  0
    3.0361   16.4022    0.2156 H   0  0  0  0  0  0  0  0  0  0  0  0
  1  2  1  0
  2  3  1  0
  3  4  1  0
  4  5  1  0
  5  6  1  0
  6  7  1  0
  7  8  1  0
  7  9  1  0
  2 10  1  0
 10 11  1  0
 11 12  1  0
 12 13  1  0
 13 14  1  6
 13 15  1  0
 15 16  1  0
 16 17  1  0
 17 18  2  0
 18 19  1  0
 19 20  1  0
 20 21  1  0
 21 22  1  0
 22 23  1  0
 22 24  1  0
 24 25  1  0
 24 26  1  0
 19 27  1  0
 27 28  1  1
 27 29  1  0
 29 30  1  0
 30 31  1  0
 31 32  1  1
  7  5  1  0
 31 10  1  0
 31 13  1  0
 27 15  1  0
 24 18  1  0
  1 33  1  0
  1 34  1  0
  1 35  1  0
  2 36  1  6
  3 37  1  0
  3 38  1  0
  4 39  1  0
  4 40  1  0
  5 41  1  6
  8 42  1  0
  8 43  1  0
  8 44  1  0
  9 45  1  0
  9 46  1  0
  9 47  1  0
 10 48  1  6
 11 49  1  0
 11 50  1  0
 12 51  1  0
 12 52  1  0
 14 53  1  0
 14 54  1  0
 14 55  1  0
 15 56  1  1
 16 57  1  0
 16 58  1  0
 17 59  1  0
 19 60  1  6
 20 61  1  0
 20 62  1  0
 21 63  1  0
 21 64  1  0
 22 65  1  6
 23 66  1  0
 25 67  1  0
 25 68  1  0
 25 69  1  0
 26 70  1  0
 26 71  1  0
 26 72  1  0
 28 73  1  0
 28 74  1  0
 28 75  1  0
 29 76  1  0
 29 77  1  0
 30 78  1  0
 30 79  1  0
 32 80  1  0
 32 81  1  0
 32 82  1  0
M  END
>  <meeko>  (12) 
{"is_sidechain": [false], "intermolecular_energy": 2.731, "internal_energy": -0.839}

$$$$
EPH_relaxed_0001_pdb2pqr_Repair_287_r2_0001_out
     RDKit          3D

 82 86  0  0  0  0  0  0  0  0999 V2000
    4.6140   17.4370   -2.9970 C   0  0  0  0  0  0  0  0  0  0  0  0
    3.2380   17.3280   -2.3340 C   0  0  2  0  0  0  0  0  0  0  0  0
    2.9840   18.4740   -1.3330 C   0  0  0  0  0  0  0  0  0  0  0  0
    1.9200   19.4720   -1.7990 C   0  0  0  0  0  0  0  0  0  0  0  0
    1.3530   19.0960   -3.1340 C   0  0  2  0  0  0  0  0  0  0  0  0
    0.8350   20.1940   -3.8960 O   0  0  0  0  0  0  0  0  0  0  0  0
   -0.1210   19.2060   -3.4780 C   0  0  0  0  0  0  0  0  0  0  0  0
   -1.1190   19.7080   -2.4820 C   0  0  0  0  0  0  0  0  0  0  0  0
   -0.6580   18.3740   -4.6010 C   0  0  0  0  0  0  0  0  0  0  0  0
    3.1050   15.9830   -1.6300 C   0  0  1  0  0  0  0  0  0  0  0  0
    3.5230   16.0460   -0.1370 C   0  0  0  0  0  0  0  0  0  0  0  0
    2.5950   15.0680    0.6290 C   0  0  0  0  0  0  0  0  0  0  0  0
    1.9070   14.2360   -0.4780 C   0  0  1  0  0  0  0  0  0  0  0  0
    2.9500   13.1420   -0.8650 C   0  0  0  0  0  0  0  0  0  0  0  0
    0.5220   13.6090   -0.1110 C   0  0  2  0  0  0  0  0  0  0  0  0
    0.5520   12.5880    1.0390 C   0  0  0  0  0  0  0  0  0  0  0  0
    0.7690   11.1700    0.6280 C   0  0  0  0  0  0  0  0  0  0  0  0
    0.6510   10.6920   -0.6250 C   0  0  0  0  0  0  0  0  0  0  0  0
    0.1680   11.5920   -1.7690 C   0  0  1  0  0  0  0  0  0  0  0  0
   -0.9110   10.8450   -2.5960 C   0  0  0  0  0  0  0  0  0  0  0  0
   -0.4310    9.4830   -3.0890 C   0  0  0  0  0  0  0  0  0  0  0  0
   -0.0140    8.5960   -1.9180 C   0  0  2  0  0  0  0  0  0  0  0  0
   -1.1750    8.2820   -1.1420 O   0  0  0  0  0  0  0  0  0  0  0  0
    1.0630    9.2490   -1.0070 C   0  0  0  0  0  0  0  0  0  0  0  0
    2.4140    9.3130   -1.7620 C   0  0  0  0  0  0  0  0  0  0  0  0
    1.2900    8.3130    0.2100 C   0  0  0  0  0  0  0  0  0  0  0  0
   -0.2890   13.0570   -1.3530 C   0  0  1  0  0  0  0  0  0  0  0  0
   -1.7910   13.0480   -0.9350 C   0  0  0  0  0  0  0  0  0  0  0  0
   -0.1820   14.0040   -2.6060 C   0  0  0  0  0  0  0  0  0  0  0  0
    1.1770   14.6870   -2.8470 C   0  0  0  0  0  0  0  0  0  0  0  0
    1.6920   15.3500   -1.5660 C   0  0  2  0  0  0  0  0  0  0  0  0
    0.6740   16.4710   -1.1650 C   0  0  0  0  0  0  0  0  0  0  0  0
    5.3911   17.4986   -2.2209 H   0  0  0  0  0  0  0  0  0  0  0  0
    4.7906   16.5500   -3.6232 H   0  0  0  0  0  0  0  0  0  0  0  0
    4.6487   18.3407   -3.6232 H   0  0  0  0  0  0  0  0  0  0  0  0
    2.4807   17.4083   -3.1278 H   0  0  0  0  0  0  0  0  0  0  0  0
    2.6554   18.0358   -0.3791 H   0  0  0  0  0  0  0  0  0  0  0  0
    3.9274   19.0312   -1.2352 H   0  0  0  0  0  0  0  0  0  0  0  0
    1.1057   19.4957   -1.0599 H   0  0  0  0  0  0  0  0  0  0  0  0
    2.3951   20.4595   -1.8945 H   0  0  0  0  0  0  0  0  0  0  0  0
    2.0748   18.2720   -3.2344 H   0  0  0  0  0  0  0  0  0  0  0  0
   -0.7469   19.5209   -1.4639 H   0  0  0  0  0  0  0  0  0  0  0  0
   -1.2682   20.7884   -2.6250 H   0  0  0  0  0  0  0  0  0  0  0  0
   -2.0754   19.1837   -2.6250 H   0  0  0  0  0  0  0  0  0  0  0  0
   -1.2113   17.5167   -4.1901 H   0  0  0  0  0  0  0  0  0  0  0  0
   -1.3332   18.9841   -5.2190 H   0  0  0  0  0  0  0  0  0  0  0  0
    0.1760   18.0100   -5.2190 H   0  0  0  0  0  0  0  0  0  0  0  0
    3.7611   15.3747   -2.2700 H   0  0  0  0  0  0  0  0  0  0  0  0
    4.5731   15.7384   -0.0243 H   0  0  0  0  0  0  0  0  0  0  0  0
    3.4296   17.0690    0.2565 H   0  0  0  0  0  0  0  0  0  0  0  0
    3.1810   14.4183    1.2956 H   0  0  0  0  0  0  0  0  0  0  0  0
    1.8698   15.5942    1.2671 H   0  0  0  0  0  0  0  0  0  0  0  0
    3.3726   12.6987    0.0487 H   0  0  0  0  0  0  0  0  0  0  0  0
    2.4563   12.3582   -1.4583 H   0  0  0  0  0  0  0  0  0  0  0  0
    3.7564   13.5977   -1.4583 H   0  0  0  0  0  0  0  0  0  0  0  0
   -0.0346   14.4761    0.2742 H   0  0  0  0  0  0  0  0  0  0  0  0
    1.3648   12.8714    1.7238 H   0  0  0  0  0  0  0  0  0  0  0  0
   -0.4457   12.6212    1.5011 H   0  0  0  0  0  0  0  0  0  0  0  0
    1.0491   10.4548    1.4154 H   0  0  0  0  0  0  0  0  0  0  0  0
    1.0508   11.7863   -2.3959 H   0  0  0  0  0  0  0  0  0  0  0  0
   -1.8001   10.6984   -1.9651 H   0  0  0  0  0  0  0  0  0  0  0  0
   -1.1387   11.4589   -3.4799 H   0  0  0  0  0  0  0  0  0  0  0  0
   -1.2462    8.9918   -3.6405 H   0  0  0  0  0  0  0  0  0  0  0  0
    0.4399    9.6331   -3.7440 H   0  0  0  0  0  0  0  0  0  0  0  0
    0.4411    7.6870   -2.3383 H   0  0  0  0  0  0  0  0  0  0  0  0
   -1.3770    9.0550   -0.5890 H   0  0  0  0  0  0  0  0  0  0  0  0
    3.2387    9.3521   -1.0352 H   0  0  0  0  0  0  0  0  0  0  0  0
    2.5238    8.4191   -2.3935 H   0  0  0  0  0  0  0  0  0  0  0  0
    2.4388   10.2133   -2.3935 H   0  0  0  0  0  0  0  0  0  0  0  0
    1.1520    8.8822    1.1411 H   0  0  0  0  0  0  0  0  0  0  0  0
    0.5666    7.4850    0.1757 H   0  0  0  0  0  0  0  0  0  0  0  0
    2.3123    7.9084    0.1757 H   0  0  0  0  0  0  0  0  0  0  0  0
   -1.8662   13.0475    0.1624 H   0  0  0  0  0  0  0  0  0  0  0  0
   -2.2886   13.9432   -1.3363 H   0  0  0  0  0  0  0  0  0  0  0  0
   -2.2779   12.1469   -1.3363 H   0  0  0  0  0  0  0  0  0  0  0  0
   -0.4153   13.4035   -3.4977 H   0  0  0  0  0  0  0  0  0  0  0  0
   -0.8854   14.8258   -2.4062 H   0  0  0  0  0  0  0  0  0  0  0  0
    1.9051   13.9324   -3.1794 H   0  0  0  0  0  0  0  0  0  0  0  0
    1.0482   15.4628   -3.6162 H   0  0  0  0  0  0  0  0  0  0  0  0
    0.6142   16.5369   -0.0686 H   0  0  0  0  0  0  0  0  0  0  0  0
    1.0114   17.4355   -1.5724 H   0  0  0  0  0  0  0  0  0  0  0  0
   -0.3184   16.2279   -1.5724 H   0  0  0  0  0  0  0  0  0  0  0  0
  1  2  1  0
  2  3  1  0
  3  4  1  0
  4  5  1  0
  5  6  1  0
  6  7  1  0
  7  8  1  0
  7  9  1  0
  2 10  1  0
 10 11  1  0
 11 12  1  0
 12 13  1  0
 13 14  1  6
 13 15  1  0
 15 16  1  0
 16 17  1  0
 17 18  2  0
 18 19  1  0
 19 20  1  0
 20 21  1  0
 21 22  1  0
 22 23  1  0
 22 24  1  0
 24 25  1  0
 24 26  1  0
 19 27  1  0
 27 28  1  1
 27 29  1  0
 29 30  1  0
 30 31  1  0
 31 32  1  1
  7  5  1  0
 31 10  1  0
 31 13  1  0
 27 15  1  0
 24 18  1  0
  1 33  1  0
  1 34  1  0
  1 35  1  0
  2 36  1  6
  3 37  1  0
  3 38  1  0
  4 39  1  0
  4 40  1  0
  5 41  1  6
  8 42  1  0
  8 43  1  0
  8 44  1  0
  9 45  1  0
  9 46  1  0
  9 47  1  0
 10 48  1  6
 11 49  1  0
 11 50  1  0
 12 51  1  0
 12 52  1  0
 14 53  1  0
 14 54  1  0
 14 55  1  0
 15 56  1  1
 16 57  1  0
 16 58  1  0
 17 59  1  0
 19 60  1  6
 20 61  1  0
 20 62  1  0
 21 63  1  0
 21 64  1  0
 22 65  1  6
 23 66  1  0
 25 67  1  0
 25 68  1  0
 25 69  1  0
 26 70  1  0
 26 71  1  0
 26 72  1  0
 28 73  1  0
 28 74  1  0
 28 75  1  0
 29 76  1  0
 29 77  1  0
 30 78  1  0
 30 79  1  0
 32 80  1  0
 32 81  1  0
 32 82  1  0
M  END
>  <meeko>  (13) 
{"is_sidechain": [false], "intermolecular_energy": 2.731, "internal_energy": -0.839}

$$$$
EPH_relaxed_0001_pdb2pqr_Repair_287_r2_0001_out
     RDKit          3D

 82 86  0  0  0  0  0  0  0  0999 V2000
    0.8910    8.7100   -0.2820 C   0  0  0  0  0  0  0  0  0  0  0  0
   -0.1630    9.4610   -1.1000 C   0  0  2  0  0  0  0  0  0  0  0  0
   -0.8580    8.5470   -2.1290 C   0  0  0  0  0  0  0  0  0  0  0  0
   -2.3600    8.3770   -1.8860 C   0  0  0  0  0  0  0  0  0  0  0  0
   -2.9110    7.1950   -2.6240 C   0  0  2  0  0  0  0  0  0  0  0  0
   -3.9360    7.5070   -3.5750 O   0  0  0  0  0  0  0  0  0  0  0  0
   -4.3340    6.6940   -2.4590 C   0  0  0  0  0  0  0  0  0  0  0  0
   -5.2940    7.3660   -1.5280 C   0  0  0  0  0  0  0  0  0  0  0  0
   -4.6400    5.2760   -2.8260 C   0  0  0  0  0  0  0  0  0  0  0  0
    0.4780   10.6490   -1.8060 C   0  0  1  0  0  0  0  0  0  0  0  0
    0.1330   10.7020   -3.3190 C   0  0  0  0  0  0  0  0  0  0  0  0
    0.0190   12.2010   -3.7000 C   0  0  0  0  0  0  0  0  0  0  0  0
    0.6230   12.9570   -2.4930 C   0  0  1  0  0  0  0  0  0  0  0  0
    2.1670   12.8890   -2.7080 C   0  0  0  0  0  0  0  0  0  0  0  0
    0.1330   14.4270   -2.2830 C   0  0  2  0  0  0  0  0  0  0  0  0
    0.4710   15.3970   -3.4290 C   0  0  0  0  0  0  0  0  0  0  0  0
    1.7760   16.1100   -3.2960 C   0  0  0  0  0  0  0  0  0  0  0  0
    2.5090   16.1970   -2.1700 C   0  0  0  0  0  0  0  0  0  0  0  0
    1.9910   15.6210   -0.8460 C   0  0  1  0  0  0  0  0  0  0  0  0
    2.2030   16.6580    0.2880 C   0  0  0  0  0  0  0  0  0  0  0  0
    3.6500   17.1320    0.3840 C   0  0  0  0  0  0  0  0  0  0  0  0
    4.1100   17.7510   -0.9330 C   0  0  2  0  0  0  0  0  0  0  0  0
    3.3760   18.9590   -1.1560 O   0  0  0  0  0  0  0  0  0  0  0  0
    3.9350   16.8010   -2.1510 C   0  0  0  0  0  0  0  0  0  0  0  0
    4.9540   15.6380   -2.0550 C   0  0  0  0  0  0  0  0  0  0  0  0
    4.3030   17.5950   -3.4330 C   0  0  0  0  0  0  0  0  0  0  0  0
    0.5110   15.0410   -0.8750 C   0  0  1  0  0  0  0  0  0  0  0  0
   -0.5130   16.1840   -0.5980 C   0  0  0  0  0  0  0  0  0  0  0  0
    0.3440   14.0020    0.2960 C   0  0  0  0  0  0  0  0  0  0  0  0
    0.7320   12.5420   -0.0100 C   0  0  0  0  0  0  0  0  0  0  0  0
    0.0860   12.0650   -1.3140 C   0  0  2  0  0  0  0  0  0  0  0  0
   -1.4680   12.1010   -1.1200 C   0  0  0  0  0  0  0  0  0  0  0  0
    0.6922    8.8517    0.7906 H   0  0  0  0  0  0  0  0  0  0  0  0
    0.8479    7.6379   -0.5244 H   0  0  0  0  0  0  0  0  0  0  0  0
    1.8902    9.1008   -0.5244 H   0  0  0  0  0  0  0  0  0  0  0  0
   -0.9344    9.8165   -0.4011 H   0  0  0  0  0  0  0  0  0  0  0  0
   -0.7150    8.9797   -3.1302 H   0  0  0  0  0  0  0  0  0  0  0  0
   -0.4022    7.5505   -2.0333 H   0  0  0  0  0  0  0  0  0  0  0  0
   -2.5331    8.2369   -0.8088 H   0  0  0  0  0  0  0  0  0  0  0  0
   -2.8709    9.2791   -2.2536 H   0  0  0  0  0  0  0  0  0  0  0  0
   -1.9385    6.6832   -2.5766 H   0  0  0  0  0  0  0  0  0  0  0  0
   -5.0007    7.1607   -0.4879 H   0  0  0  0  0  0  0  0  0  0  0  0
   -5.2784    8.4514   -1.7059 H   0  0  0  0  0  0  0  0  0  0  0  0
   -6.3085    6.9798   -1.7059 H   0  0  0  0  0  0  0  0  0  0  0  0
   -4.7686    4.6799   -1.9105 H   0  0  0  0  0  0  0  0  0  0  0  0
   -5.5661    5.2423   -3.4186 H   0  0  0  0  0  0  0  0  0  0  0  0
   -3.8102    4.8634   -3.4186 H   0  0  0  0  0  0  0  0  0  0  0  0
    1.5356   10.4505   -1.5777 H   0  0  0  0  0  0  0  0  0  0  0  0
    0.9295   10.2215   -3.9061 H   0  0  0  0  0  0  0  0  0  0  0  0
   -0.8060   10.1688   -3.5288 H   0  0  0  0  0  0  0  0  0  0  0  0
    0.5894   12.4133   -4.6163 H   0  0  0  0  0  0  0  0  0  0  0  0
   -1.0192   12.5020   -3.9039 H   0  0  0  0  0  0  0  0  0  0  0  0
    2.6726   12.8667   -1.7313 H   0  0  0  0  0  0  0  0  0  0  0  0
    2.4189   11.9789   -3.2721 H   0  0  0  0  0  0  0  0  0  0  0  0
    2.4980   13.7734   -3.2721 H   0  0  0  0  0  0  0  0  0  0  0  0
   -0.9613   14.3159   -2.2988 H   0  0  0  0  0  0  0  0  0  0  0  0
    0.4918   14.8218   -4.3664 H   0  0  0  0  0  0  0  0  0  0  0  0
   -0.3053   16.1760   -3.4077 H   0  0  0  0  0  0  0  0  0  0  0  0
    2.1722   16.6063   -4.1941 H   0  0  0  0  0  0  0  0  0  0  0  0
    2.5946   14.7231   -0.6473 H   0  0  0  0  0  0  0  0  0  0  0  0
    1.5588   17.5285    0.0948 H   0  0  0  0  0  0  0  0  0  0  0  0
    1.9479   16.1690    1.2397 H   0  0  0  0  0  0  0  0  0  0  0  0
    3.7301   17.8842    1.1826 H   0  0  0  0  0  0  0  0  0  0  0  0
    4.2893   16.2650    0.6065 H   0  0  0  0  0  0  0  0  0  0  0  0
    5.1879   17.9516   -0.8442 H   0  0  0  0  0  0  0  0  0  0  0  0
    3.8580   19.6810   -0.7190 H   0  0  0  0  0  0  0  0  0  0  0  0
    5.1528   15.4111   -0.9972 H   0  0  0  0  0  0  0  0  0  0  0  0
    4.5408   14.7467   -2.5498 H   0  0  0  0  0  0  0  0  0  0  0  0
    5.8919   15.9305   -2.5498 H   0  0  0  0  0  0  0  0  0  0  0  0
    4.7501   18.5597   -3.1511 H   0  0  0  0  0  0  0  0  0  0  0  0
    5.0247   17.0163   -4.0282 H   0  0  0  0  0  0  0  0  0  0  0  0
    3.3950   17.7717   -4.0282 H   0  0  0  0  0  0  0  0  0  0  0  0
   -0.6308   16.3155    0.4877 H   0  0  0  0  0  0  0  0  0  0  0  0
   -0.1463   17.1207   -1.0432 H   0  0  0  0  0  0  0  0  0  0  0  0
   -1.4842   15.9221   -1.0432 H   0  0  0  0  0  0  0  0  0  0  0  0
    0.9679   14.3433    1.1352 H   0  0  0  0  0  0  0  0  0  0  0  0
   -0.7356   13.9752    0.5054 H   0  0  0  0  0  0  0  0  0  0  0  0
    1.8258   12.4724   -0.1038 H   0  0  0  0  0  0  0  0  0  0  0  0
    0.3748   11.9044    0.8121 H   0  0  0  0  0  0  0  0  0  0  0  0
   -1.7033   12.1065   -0.0455 H   0  0  0  0  0  0  0  0  0  0  0  0
   -1.8751   13.0088   -1.5891 H   0  0  0  0  0  0  0  0  0  0  0  0
   -1.9168   11.2130   -1.5891 H   0  0  0  0  0  0  0  0  0  0  0  0
  1  2  1  0
  2  3  1  0
  3  4  1  0
  4  5  1  0
  5  6  1  0
  6  7  1  0
  7  8  1  0
  7  9  1  0
  2 10  1  0
 10 11  1  0
 11 12  1  0
 12 13  1  0
 13 14  1  6
 13 15  1  0
 15 16  1  0
 16 17  1  0
 17 18  2  0
 18 19  1  0
 19 20  1  0
 20 21  1  0
 21 22  1  0
 22 23  1  0
 22 24  1  0
 24 25  1  0
 24 26  1  0
 19 27  1  0
 27 28  1  1
 27 29  1  0
 29 30  1  0
 30 31  1  0
 31 32  1  1
  7  5  1  0
 31 10  1  0
 31 13  1  0
 27 15  1  0
 24 18  1  0
  1 33  1  0
  1 34  1  0
  1 35  1  0
  2 36  1  1
  3 37  1  0
  3 38  1  0
  4 39  1  0
  4 40  1  0
  5 41  1  6
  8 42  1  0
  8 43  1  0
  8 44  1  0
  9 45  1  0
  9 46  1  0
  9 47  1  0
 10 48  1  6
 11 49  1  0
 11 50  1  0
 12 51  1  0
 12 52  1  0
 14 53  1  0
 14 54  1  0
 14 55  1  0
 15 56  1  1
 16 57  1  0
 16 58  1  0
 17 59  1  0
 19 60  1  1
 20 61  1  0
 20 62  1  0
 21 63  1  0
 21 64  1  0
 22 65  1  1
 23 66  1  0
 25 67  1  0
 25 68  1  0
 25 69  1  0
 26 70  1  0
 26 71  1  0
 26 72  1  0
 28 73  1  0
 28 74  1  0
 28 75  1  0
 29 76  1  0
 29 77  1  0
 30 78  1  0
 30 79  1  0
 32 80  1  0
 32 81  1  0
 32 82  1  0
M  END
>  <meeko>  (14) 
{"is_sidechain": [false], "intermolecular_energy": 2.731, "internal_energy": -0.839}

$$$$
EPH_relaxed_0001_pdb2pqr_Repair_287_r2_0001_out
     RDKit          3D

 82 86  0  0  0  0  0  0  0  0999 V2000
   -5.0870    6.0020   -1.5870 C   0  0  0  0  0  0  0  0  0  0  0  0
   -5.3990    7.4960   -1.7140 C   0  0  2  0  0  0  0  0  0  0  0  0
   -5.1860    8.2490   -0.3860 C   0  0  0  0  0  0  0  0  0  0  0  0
   -4.2000    9.4160   -0.4910 C   0  0  0  0  0  0  0  0  0  0  0  0
   -2.7780    8.9480   -0.4230 C   0  0  2  0  0  0  0  0  0  0  0  0
   -1.9840    9.5910    0.5820 O   0  0  0  0  0  0  0  0  0  0  0  0
   -1.5910    9.8230   -0.7810 C   0  0  0  0  0  0  0  0  0  0  0  0
   -1.7740   11.2380   -1.2340 C   0  0  0  0  0  0  0  0  0  0  0  0
   -0.3030    9.1620   -1.1580 C   0  0  0  0  0  0  0  0  0  0  0  0
   -6.8320    7.6880   -2.1980 C   0  0  1  0  0  0  0  0  0  0  0  0
   -7.1060    6.9790   -3.5500 C   0  0  0  0  0  0  0  0  0  0  0  0
   -8.5710    6.4730   -3.5020 C   0  0  0  0  0  0  0  0  0  0  0  0
   -9.1900    7.1880   -2.2780 C   0  0  1  0  0  0  0  0  0  0  0  0
   -9.5650    8.6130   -2.7930 C   0  0  0  0  0  0  0  0  0  0  0  0
  -10.4090    6.4770   -1.6060 C   0  0  2  0  0  0  0  0  0  0  0  0
  -11.6490    6.3190   -2.5040 C   0  0  0  0  0  0  0  0  0  0  0  0
  -12.6290    7.4440   -2.4420 C   0  0  0  0  0  0  0  0  0  0  0  0
  -12.6660    8.3980   -1.4930 C   0  0  0  0  0  0  0  0  0  0  0  0
  -11.7150    8.3480   -0.2890 C   0  0  1  0  0  0  0  0  0  0  0  0
  -12.5140    8.6180    1.0130 C   0  0  0  0  0  0  0  0  0  0  0  0
  -13.3120    9.9170    0.9520 C   0  0  0  0  0  0  0  0  0  0  0  0
  -14.2870    9.9040   -0.2230 C   0  0  2  0  0  0  0  0  0  0  0  0
  -15.2860    8.9080    0.0180 O   0  0  0  0  0  0  0  0  0  0  0  0
  -13.5960    9.6310   -1.5890 C   0  0  0  0  0  0  0  0  0  0  0  0
  -12.7400   10.8570   -1.9920 C   0  0  0  0  0  0  0  0  0  0  0  0
  -14.7060    9.5040   -2.6670 C   0  0  0  0  0  0  0  0  0  0  0  0
  -10.7950    7.0570   -0.1850 C   0  0  1  0  0  0  0  0  0  0  0  0
  -11.5550    5.9220    0.5680 C   0  0  0  0  0  0  0  0  0  0  0  0
   -9.5290    7.3970    0.6870 C   0  0  0  0  0  0  0  0  0  0  0  0
   -8.3130    7.9860   -0.0540 C   0  0  0  0  0  0  0  0  0  0  0  0
   -7.9670    7.1500   -1.2900 C   0  0  2  0  0  0  0  0  0  0  0  0
   -7.5630    5.7180   -0.8020 C   0  0  0  0  0  0  0  0  0  0  0  0
   -5.0299    5.7285   -0.5231 H   0  0  0  0  0  0  0  0  0  0  0  0
   -5.8827    5.4186   -2.0734 H   0  0  0  0  0  0  0  0  0  0  0  0
   -4.1243    5.7858   -2.0734 H   0  0  0  0  0  0  0  0  0  0  0  0
   -4.6983    7.9191   -2.4488 H   0  0  0  0  0  0  0  0  0  0  0  0
   -6.1566    8.6436   -0.0510 H   0  0  0  0  0  0  0  0  0  0  0  0
   -4.7570    7.5290    0.3264 H   0  0  0  0  0  0  0  0  0  0  0  0
   -4.3598    9.9326   -1.4489 H   0  0  0  0  0  0  0  0  0  0  0  0
   -4.3790   10.0935    0.3570 H   0  0  0  0  0  0  0  0  0  0  0  0
   -3.0709    7.9364   -0.7406 H   0  0  0  0  0  0  0  0  0  0  0  0
   -1.8591   11.8958   -0.3565 H   0  0  0  0  0  0  0  0  0  0  0  0
   -0.9080   11.5442   -1.8392 H   0  0  0  0  0  0  0  0  0  0  0  0
   -2.6894   11.3138   -1.8392 H   0  0  0  0  0  0  0  0  0  0  0  0
    0.2452    8.8807   -0.2468 H   0  0  0  0  0  0  0  0  0  0  0  0
   -0.5136    8.2606   -1.7522 H   0  0  0  0  0  0  0  0  0  0  0  0
    0.3065    9.8587   -1.7522 H   0  0  0  0  0  0  0  0  0  0  0  0
   -6.8685    8.7868   -2.2353 H   0  0  0  0  0  0  0  0  0  0  0  0
   -6.9770    7.6871   -4.3818 H   0  0  0  0  0  0  0  0  0  0  0  0
   -6.4056    6.1455   -3.7076 H   0  0  0  0  0  0  0  0  0  0  0  0
   -9.1066    6.7459   -4.4232 H   0  0  0  0  0  0  0  0  0  0  0  0
   -8.6319    5.3777   -3.4205 H   0  0  0  0  0  0  0  0  0  0  0  0
   -9.7402    9.2786   -1.9350 H   0  0  0  0  0  0  0  0  0  0  0  0
   -8.7410    9.0109   -3.4035 H   0  0  0  0  0  0  0  0  0  0  0  0
  -10.4781    8.5537   -3.4035 H   0  0  0  0  0  0  0  0  0  0  0  0
  -10.0269    5.4586   -1.4424 H   0  0  0  0  0  0  0  0  0  0  0  0
  -11.3052    6.2247   -3.5446 H   0  0  0  0  0  0  0  0  0  0  0  0
  -12.1817    5.4307   -2.1337 H   0  0  0  0  0  0  0  0  0  0  0  0
  -13.3848    7.4977   -3.2394 H   0  0  0  0  0  0  0  0  0  0  0  0
  -10.9796    9.1503   -0.4485 H   0  0  0  0  0  0  0  0  0  0  0  0
  -13.2113    7.7834    1.1781 H   0  0  0  0  0  0  0  0  0  0  0  0
  -11.7897    8.7098    1.8358 H   0  0  0  0  0  0  0  0  0  0  0  0
  -13.8777   10.0362    1.8878 H   0  0  0  0  0  0  0  0  0  0  0  0
  -12.6108   10.7537    0.8170 H   0  0  0  0  0  0  0  0  0  0  0  0
  -14.7341   10.9066   -0.2921 H   0  0  0  0  0  0  0  0  0  0  0  0
  -14.9430    8.3070    0.7010 H   0  0  0  0  0  0  0  0  0  0  0  0
  -12.3828   11.3686   -1.0861 H   0  0  0  0  0  0  0  0  0  0  0  0
  -11.8782   10.5225   -2.5881 H   0  0  0  0  0  0  0  0  0  0  0  0
  -13.3510   11.5508   -2.5881 H   0  0  0  0  0  0  0  0  0  0  0  0
  -15.6836    9.3921   -2.1753 H   0  0  0  0  0  0  0  0  0  0  0  0
  -14.7125   10.4073   -3.2948 H   0  0  0  0  0  0  0  0  0  0  0  0
  -14.5083    8.6226   -3.2948 H   0  0  0  0  0  0  0  0  0  0  0  0
  -11.4551    6.0712    1.6532 H   0  0  0  0  0  0  0  0  0  0  0  0
  -12.6192    5.9469    0.2909 H   0  0  0  0  0  0  0  0  0  0  0  0
  -11.1267    4.9475    0.2909 H   0  0  0  0  0  0  0  0  0  0  0  0
   -9.8374    8.1250    1.4518 H   0  0  0  0  0  0  0  0  0  0  0  0
   -9.1843    6.4305    1.0832 H   0  0  0  0  0  0  0  0  0  0  0  0
   -8.5464    9.0139   -0.3685 H   0  0  0  0  0  0  0  0  0  0  0  0
   -7.4495    7.9788    0.6275 H   0  0  0  0  0  0  0  0  0  0  0  0
   -7.5562    5.6937    0.2977 H   0  0  0  0  0  0  0  0  0  0  0  0
   -8.2889    4.9833   -1.1805 H   0  0  0  0  0  0  0  0  0  0  0  0
   -6.5601    5.4710   -1.1805 H   0  0  0  0  0  0  0  0  0  0  0  0
  1  2  1  0
  2  3  1  0
  3  4  1  0
  4  5  1  0
  5  6  1  0
  6  7  1  0
  7  8  1  0
  7  9  1  0
  2 10  1  0
 10 11  1  0
 11 12  1  0
 12 13  1  0
 13 14  1  6
 13 15  1  0
 15 16  1  0
 16 17  1  0
 17 18  2  0
 18 19  1  0
 19 20  1  0
 20 21  1  0
 21 22  1  0
 22 23  1  0
 22 24  1  0
 24 25  1  0
 24 26  1  0
 19 27  1  0
 27 28  1  1
 27 29  1  0
 29 30  1  0
 30 31  1  0
 31 32  1  1
  7  5  1  0
 31 10  1  0
 31 13  1  0
 27 15  1  0
 24 18  1  0
  1 33  1  0
  1 34  1  0
  1 35  1  0
  2 36  1  6
  3 37  1  0
  3 38  1  0
  4 39  1  0
  4 40  1  0
  5 41  1  1
  8 42  1  0
  8 43  1  0
  8 44  1  0
  9 45  1  0
  9 46  1  0
  9 47  1  0
 10 48  1  6
 11 49  1  0
 11 50  1  0
 12 51  1  0
 12 52  1  0
 14 53  1  0
 14 54  1  0
 14 55  1  0
 15 56  1  1
 16 57  1  0
 16 58  1  0
 17 59  1  0
 19 60  1  6
 20 61  1  0
 20 62  1  0
 21 63  1  0
 21 64  1  0
 22 65  1  6
 23 66  1  0
 25 67  1  0
 25 68  1  0
 25 69  1  0
 26 70  1  0
 26 71  1  0
 26 72  1  0
 28 73  1  0
 28 74  1  0
 28 75  1  0
 29 76  1  0
 29 77  1  0
 30 78  1  0
 30 79  1  0
 32 80  1  0
 32 81  1  0
 32 82  1  0
M  END
>  <meeko>  (15) 
{"is_sidechain": [false], "intermolecular_energy": 2.731, "internal_energy": -0.839}

$$$$
EPH_relaxed_0001_pdb2pqr_Repair_287_r2_0001_out
     RDKit          3D

 82 86  0  0  0  0  0  0  0  0999 V2000
    2.9660   18.4730    0.7240 C   0  0  0  0  0  0  0  0  0  0  0  0
    3.0040   17.5540   -0.5010 C   0  0  2  0  0  0  0  0  0  0  0  0
    2.8630   18.3390   -1.8200 C   0  0  0  0  0  0  0  0  0  0  0  0
    3.9840   18.0590   -2.8260 C   0  0  0  0  0  0  0  0  0  0  0  0
    4.5290   16.6710   -2.6760 C   0  0  2  0  0  0  0  0  0  0  0  0
    5.7000   16.5730   -1.8550 O   0  0  0  0  0  0  0  0  0  0  0  0
    5.8670   16.2330   -3.2400 C   0  0  0  0  0  0  0  0  0  0  0  0
    6.7430   17.1810   -3.9980 C   0  0  0  0  0  0  0  0  0  0  0  0
    6.1000   14.7730   -3.4790 C   0  0  0  0  0  0  0  0  0  0  0  0
    1.9030   16.5050   -0.3980 C   0  0  1  0  0  0  0  0  0  0  0  0
    0.4830   17.1130   -0.5510 C   0  0  0  0  0  0  0  0  0  0  0  0
   -0.3770   16.0580   -1.2920 C   0  0  0  0  0  0  0  0  0  0  0  0
    0.4670   14.7640   -1.2460 C   0  0  1  0  0  0  0  0  0  0  0  0
    0.2060   14.1650    0.1710 C   0  0  0  0  0  0  0  0  0  0  0  0
    0.1910   13.7180   -2.3750 C   0  0  2  0  0  0  0  0  0  0  0  0
   -1.2330   13.1330   -2.3880 C   0  0  0  0  0  0  0  0  0  0  0  0
   -1.4190   11.8920   -1.5790 C   0  0  0  0  0  0  0  0  0  0  0  0
   -0.4300   11.1120   -1.1030 C   0  0  0  0  0  0  0  0  0  0  0  0
    1.0360   11.4000   -1.4500 C   0  0  1  0  0  0  0  0  0  0  0  0
    1.7370   10.0810   -1.8690 C   0  0  0  0  0  0  0  0  0  0  0  0
    1.5910    8.9820   -0.8220 C   0  0  0  0  0  0  0  0  0  0  0  0
    0.1190    8.6840   -0.5460 C   0  0  2  0  0  0  0  0  0  0  0  0
   -0.4620    8.1070   -1.7200 O   0  0  0  0  0  0  0  0  0  0  0  0
   -0.6920    9.9410   -0.1250 C   0  0  0  0  0  0  0  0  0  0  0  0
   -0.2610   10.3870    1.2940 C   0  0  0  0  0  0  0  0  0  0  0  0
   -2.1860    9.5300   -0.0150 C   0  0  0  0  0  0  0  0  0  0  0  0
    1.2840   12.5790   -2.4860 C   0  0  1  0  0  0  0  0  0  0  0  0
    1.2100   12.0320   -3.9440 C   0  0  0  0  0  0  0  0  0  0  0  0
    2.7460   13.1330   -2.2940 C   0  0  0  0  0  0  0  0  0  0  0  0
    2.9340   14.2490   -1.2480 C   0  0  0  0  0  0  0  0  0  0  0  0
    1.9050   15.3660   -1.4480 C   0  0  2  0  0  0  0  0  0  0  0  0
    2.1570   16.0030   -2.8570 C   0  0  0  0  0  0  0  0  0  0  0  0
    2.9912   17.8643    1.6399 H   0  0  0  0  0  0  0  0  0  0  0  0
    3.8372   19.1444    0.7059 H   0  0  0  0  0  0  0  0  0  0  0  0
    2.0424   19.0702    0.7059 H   0  0  0  0  0  0  0  0  0  0  0  0
    3.9870   17.0605   -0.5145 H   0  0  0  0  0  0  0  0  0  0  0  0
    1.9036   18.0678   -2.2847 H   0  0  0  0  0  0  0  0  0  0  0  0
    2.9188   19.4077   -1.5656 H   0  0  0  0  0  0  0  0  0  0  0  0
    3.5867   18.1779   -3.8448 H   0  0  0  0  0  0  0  0  0  0  0  0
    4.8010   18.7707   -2.6362 H   0  0  0  0  0  0  0  0  0  0  0  0
    3.5195   16.2409   -2.7522 H   0  0  0  0  0  0  0  0  0  0  0  0
    7.3140   17.7989   -3.2894 H   0  0  0  0  0  0  0  0  0  0  0  0
    7.4390   16.6108   -4.6308 H   0  0  0  0  0  0  0  0  0  0  0  0
    6.1197   17.8299   -4.6308 H   0  0  0  0  0  0  0  0  0  0  0  0
    6.1831   14.2521   -2.5137 H   0  0  0  0  0  0  0  0  0  0  0  0
    5.2571   14.3557   -4.0494 H   0  0  0  0  0  0  0  0  0  0  0  0
    7.0309   14.6388   -4.0494 H   0  0  0  0  0  0  0  0  0  0  0  0
    2.1288   16.0980    0.5987 H   0  0  0  0  0  0  0  0  0  0  0  0
    0.0529   17.3249    0.4390 H   0  0  0  0  0  0  0  0  0  0  0  0
    0.5165   18.0593   -1.1108 H   0  0  0  0  0  0  0  0  0  0  0  0
   -1.3393   15.9122   -0.7795 H   0  0  0  0  0  0  0  0  0  0  0  0
   -0.6160   16.3634   -2.3214 H   0  0  0  0  0  0  0  0  0  0  0  0
    0.5209   14.8876    0.9382 H   0  0  0  0  0  0  0  0  0  0  0  0
   -0.8668   13.9513    0.2868 H   0  0  0  0  0  0  0  0  0  0  0  0
    0.7799   13.2338    0.2868 H   0  0  0  0  0  0  0  0  0  0  0  0
    0.2728   14.3283   -3.2865 H   0  0  0  0  0  0  0  0  0  0  0  0
   -1.9190   13.8993   -1.9979 H   0  0  0  0  0  0  0  0  0  0  0  0
   -1.4367   12.8501   -3.4313 H   0  0  0  0  0  0  0  0  0  0  0  0
   -2.4519   11.5891   -1.3525 H   0  0  0  0  0  0  0  0  0  0  0  0
    1.4957   11.7912   -0.5304 H   0  0  0  0  0  0  0  0  0  0  0  0
    1.2931    9.7303   -2.8124 H   0  0  0  0  0  0  0  0  0  0  0  0
    2.8102   10.2947   -1.9808 H   0  0  0  0  0  0  0  0  0  0  0  0
    2.0808    8.0679   -1.1887 H   0  0  0  0  0  0  0  0  0  0  0  0
    2.0618    9.3220    0.1122 H   0  0  0  0  0  0  0  0  0  0  0  0
    0.0769    7.9854    0.3027 H   0  0  0  0  0  0  0  0  0  0  0  0
   -1.1110    8.7420   -2.0690 H   0  0  0  0  0  0  0  0  0  0  0  0
   -0.8193    9.8093    2.0453 H   0  0  0  0  0  0  0  0  0  0  0  0
    0.8171   10.2101    1.4223 H   0  0  0  0  0  0  0  0  0  0  0  0
   -0.4746   11.4584    1.4223 H   0  0  0  0  0  0  0  0  0  0  0  0
   -2.4678    9.4525    1.0455 H   0  0  0  0  0  0  0  0  0  0  0  0
   -2.8123   10.2892   -0.5063 H   0  0  0  0  0  0  0  0  0  0  0  0
   -2.3358    8.5573   -0.5063 H   0  0  0  0  0  0  0  0  0  0  0  0
    1.0626   10.9422   -3.9197 H   0  0  0  0  0  0  0  0  0  0  0  0
    0.3676   12.5043   -4.4705 H   0  0  0  0  0  0  0  0  0  0  0  0
    2.1476   12.2635   -4.4705 H   0  0  0  0  0  0  0  0  0  0  0  0
    3.3858   12.2885   -1.9983 H   0  0  0  0  0  0  0  0  0  0  0  0
    3.0080   13.5943   -3.2576 H   0  0  0  0  0  0  0  0  0  0  0  0
    2.8118   13.8230   -0.2412 H   0  0  0  0  0  0  0  0  0  0  0  0
    3.9415   14.6746   -1.3660 H   0  0  0  0  0  0  0  0  0  0  0  0
    2.5591   17.0194   -2.7333 H   0  0  0  0  0  0  0  0  0  0  0  0
    2.8796   15.3880   -3.4135 H   0  0  0  0  0  0  0  0  0  0  0  0
    1.2093   16.0488   -3.4135 H   0  0  0  0  0  0  0  0  0  0  0  0
  1  2  1  0
  2  3  1  0
  3  4  1  0
  4  5  1  0
  5  6  1  0
  6  7  1  0
  7  8  1  0
  7  9  1  0
  2 10  1  0
 10 11  1  0
 11 12  1  0
 12 13  1  0
 13 14  1  1
 13 15  1  0
 15 16  1  0
 16 17  1  0
 17 18  2  0
 18 19  1  0
 19 20  1  0
 20 21  1  0
 21 22  1  0
 22 23  1  0
 22 24  1  0
 24 25  1  0
 24 26  1  0
 19 27  1  0
 27 28  1  6
 27 29  1  0
 29 30  1  0
 30 31  1  0
 31 32  1  6
  7  5  1  0
 31 10  1  0
 31 13  1  0
 27 15  1  0
 24 18  1  0
  1 33  1  0
  1 34  1  0
  1 35  1  0
  2 36  1  6
  3 37  1  0
  3 38  1  0
  4 39  1  0
  4 40  1  0
  5 41  1  1
  8 42  1  0
  8 43  1  0
  8 44  1  0
  9 45  1  0
  9 46  1  0
  9 47  1  0
 10 48  1  1
 11 49  1  0
 11 50  1  0
 12 51  1  0
 12 52  1  0
 14 53  1  0
 14 54  1  0
 14 55  1  0
 15 56  1  6
 16 57  1  0
 16 58  1  0
 17 59  1  0
 19 60  1  1
 20 61  1  0
 20 62  1  0
 21 63  1  0
 21 64  1  0
 22 65  1  1
 23 66  1  0
 25 67  1  0
 25 68  1  0
 25 69  1  0
 26 70  1  0
 26 71  1  0
 26 72  1  0
 28 73  1  0
 28 74  1  0
 28 75  1  0
 29 76  1  0
 29 77  1  0
 30 78  1  0
 30 79  1  0
 32 80  1  0
 32 81  1  0
 32 82  1  0
M  END
>  <meeko>  (16) 
{"is_sidechain": [false], "intermolecular_energy": 2.731, "internal_energy": -0.839}

$$$$
EPH_relaxed_0001_pdb2pqr_Repair_287_r2_0001_out
     RDKit          3D

 82 86  0  0  0  0  0  0  0  0999 V2000
   -1.3130   10.3950    1.6010 C   0  0  0  0  0  0  0  0  0  0  0  0
   -1.9320   10.1080    0.2300 C   0  0  2  0  0  0  0  0  0  0  0  0
   -2.7280    8.7870    0.2160 C   0  0  0  0  0  0  0  0  0  0  0  0
   -4.1250    8.9170   -0.3950 C   0  0  0  0  0  0  0  0  0  0  0  0
   -4.6780    7.5840   -0.8020 C   0  0  2  0  0  0  0  0  0  0  0  0
   -4.8170    7.4000   -2.2170 O   0  0  0  0  0  0  0  0  0  0  0  0
   -6.0360    7.4060   -1.4560 C   0  0  0  0  0  0  0  0  0  0  0  0
   -6.9250    8.5760   -1.7390 C   0  0  0  0  0  0  0  0  0  0  0  0
   -6.7000    6.0670   -1.3710 C   0  0  0  0  0  0  0  0  0  0  0  0
   -0.8420   10.0700   -0.8350 C   0  0  1  0  0  0  0  0  0  0  0  0
   -1.2290    9.1940   -2.0560 C   0  0  0  0  0  0  0  0  0  0  0  0
   -0.6120    9.8720   -3.3070 C   0  0  0  0  0  0  0  0  0  0  0  0
    0.3760   10.9160   -2.7370 C   0  0  1  0  0  0  0  0  0  0  0  0
    1.6620   10.1030   -2.3880 C   0  0  0  0  0  0  0  0  0  0  0  0
    0.6980   12.1380   -3.6580 C   0  0  2  0  0  0  0  0  0  0  0  0
    1.3850   11.7880   -4.9900 C   0  0  0  0  0  0  0  0  0  0  0  0
    2.8770   11.7790   -4.9540 C   0  0  0  0  0  0  0  0  0  0  0  0
    3.6400   12.3140   -3.9830 C   0  0  0  0  0  0  0  0  0  0  0  0
    3.0060   13.0960   -2.8250 C   0  0  1  0  0  0  0  0  0  0  0  0
    3.7900   14.4160   -2.6020 C   0  0  0  0  0  0  0  0  0  0  0  0
    5.2840   14.1820   -2.3990 C   0  0  0  0  0  0  0  0  0  0  0  0
    5.8890   13.4530   -3.5960 C   0  0  2  0  0  0  0  0  0  0  0  0
    5.8370   14.3180   -4.7360 O   0  0  0  0  0  0  0  0  0  0  0  0
    5.1740   12.1130   -3.9240 C   0  0  0  0  0  0  0  0  0  0  0  0
    5.4860   11.0730   -2.8190 C   0  0  0  0  0  0  0  0  0  0  0  0
    5.7890   11.5510   -5.2340 C   0  0  0  0  0  0  0  0  0  0  0  0
    1.4370   13.3280   -2.9220 C   0  0  1  0  0  0  0  0  0  0  0  0
    1.1390   14.6160   -3.7480 C   0  0  0  0  0  0  0  0  0  0  0  0
    0.8650   13.5850   -1.4770 C   0  0  0  0  0  0  0  0  0  0  0  0
    0.4540   12.3440   -0.6620 C   0  0  0  0  0  0  0  0  0  0  0  0
   -0.4410   11.4160   -1.4900 C   0  0  2  0  0  0  0  0  0  0  0  0
   -1.7520   12.2000   -1.8370 C   0  0  0  0  0  0  0  0  0  0  0  0
   -2.0071   10.0732    2.3913 H   0  0  0  0  0  0  0  0  0  0  0  0
   -0.3658    9.8442    1.6982 H   0  0  0  0  0  0  0  0  0  0  0  0
   -1.1214   11.4738    1.6982 H   0  0  0  0  0  0  0  0  0  0  0  0
   -2.6390   10.9215    0.0102 H   0  0  0  0  0  0  0  0  0  0  0  0
   -2.1614    8.0463   -0.3674 H   0  0  0  0  0  0  0  0  0  0  0  0
   -2.8627    8.4818    1.2642 H   0  0  0  0  0  0  0  0  0  0  0  0
   -4.7981    9.3707    0.3474 H   0  0  0  0  0  0  0  0  0  0  0  0
   -4.0490    9.5460   -1.2942 H   0  0  0  0  0  0  0  0  0  0  0  0
   -4.2070    7.0975    0.0649 H   0  0  0  0  0  0  0  0  0  0  0  0
   -7.2615    9.0188   -0.7900 H   0  0  0  0  0  0  0  0  0  0  0  0
   -6.3684    9.3280   -2.3175 H   0  0  0  0  0  0  0  0  0  0  0  0
   -7.7986    8.2412   -2.3175 H   0  0  0  0  0  0  0  0  0  0  0  0
   -6.8365    5.7918   -0.3148 H   0  0  0  0  0  0  0  0  0  0  0  0
   -7.6804    6.1117   -1.8679 H   0  0  0  0  0  0  0  0  0  0  0  0
   -6.0711    5.3136   -1.8679 H   0  0  0  0  0  0  0  0  0  0  0  0
   -0.0084    9.6814   -0.2315 H   0  0  0  0  0  0  0  0  0  0  0  0
   -0.8238    8.1783   -1.9371 H   0  0  0  0  0  0  0  0  0  0  0  0
   -2.3216    9.1098   -2.1510 H   0  0  0  0  0  0  0  0  0  0  0  0
   -0.0822    9.1340   -3.9272 H   0  0  0  0  0  0  0  0  0  0  0  0
   -1.3757   10.3295   -3.9531 H   0  0  0  0  0  0  0  0  0  0  0  0
    1.7681   10.0359   -1.2952 H   0  0  0  0  0  0  0  0  0  0  0  0
    1.5821    9.0909   -2.8114 H   0  0  0  0  0  0  0  0  0  0  0  0
    2.5420   10.6092   -2.8114 H   0  0  0  0  0  0  0  0  0  0  0  0
   -0.3049   12.5021   -3.9254 H   0  0  0  0  0  0  0  0  0  0  0  0
    1.0462   10.7868   -5.2945 H   0  0  0  0  0  0  0  0  0  0  0  0
    1.1022   12.5822   -5.6965 H   0  0  0  0  0  0  0  0  0  0  0  0
    3.3975   11.2936   -5.7928 H   0  0  0  0  0  0  0  0  0  0  0  0
    3.0969   12.4525   -1.9375 H   0  0  0  0  0  0  0  0  0  0  0  0
    3.6505   15.0618   -3.4815 H   0  0  0  0  0  0  0  0  0  0  0  0
    3.3985   14.8865   -1.6880 H   0  0  0  0  0  0  0  0  0  0  0  0
    5.7871   15.1525   -2.2765 H   0  0  0  0  0  0  0  0  0  0  0  0
    5.4237   13.5608   -1.5020 H   0  0  0  0  0  0  0  0  0  0  0  0
    6.9271   13.1981   -3.3366 H   0  0  0  0  0  0  0  0  0  0  0  0
    6.1770   13.8200   -5.4990 H   0  0  0  0  0  0  0  0  0  0  0  0
    5.3473   11.5354   -1.8306 H   0  0  0  0  0  0  0  0  0  0  0  0
    4.8059   10.2145   -2.9209 H   0  0  0  0  0  0  0  0  0  0  0  0
    6.5264   10.7307   -2.9209 H   0  0  0  0  0  0  0  0  0  0  0  0
    6.5803   10.8279   -4.9869 H   0  0  0  0  0  0  0  0  0  0  0  0
    5.0054   11.0504   -5.8217 H   0  0  0  0  0  0  0  0  0  0  0  0
    6.2171   12.3764   -5.8217 H   0  0  0  0  0  0  0  0  0  0  0  0
    0.9450   15.4543   -3.0628 H   0  0  0  0  0  0  0  0  0  0  0  0
    2.0059   14.8537   -4.3821 H   0  0  0  0  0  0  0  0  0  0  0  0
    0.2558   14.4488   -4.3821 H   0  0  0  0  0  0  0  0  0  0  0  0
    1.6370   14.1190   -0.9036 H   0  0  0  0  0  0  0  0  0  0  0  0
   -0.0666   14.1490   -1.6322 H   0  0  0  0  0  0  0  0  0  0  0  0
    1.3587   11.7961   -0.3599 H   0  0  0  0  0  0  0  0  0  0  0  0
   -0.1085   12.6761    0.2230 H   0  0  0  0  0  0  0  0  0  0  0  0
   -2.2560   12.5014   -0.9069 H   0  0  0  0  0  0  0  0  0  0  0  0
   -1.4993   13.0954   -2.4239 H   0  0  0  0  0  0  0  0  0  0  0  0
   -2.4213   11.5537   -2.4239 H   0  0  0  0  0  0  0  0  0  0  0  0
  1  2  1  0
  2  3  1  0
  3  4  1  0
  4  5  1  0
  5  6  1  0
  6  7  1  0
  7  8  1  0
  7  9  1  0
  2 10  1  0
 10 11  1  0
 11 12  1  0
 12 13  1  0
 13 14  1  1
 13 15  1  0
 15 16  1  0
 16 17  1  0
 17 18  2  0
 18 19  1  0
 19 20  1  0
 20 21  1  0
 21 22  1  0
 22 23  1  0
 22 24  1  0
 24 25  1  0
 24 26  1  0
 19 27  1  0
 27 28  1  6
 27 29  1  0
 29 30  1  0
 30 31  1  0
 31 32  1  6
  7  5  1  0
 31 10  1  0
 31 13  1  0
 27 15  1  0
 24 18  1  0
  1 33  1  0
  1 34  1  0
  1 35  1  0
  2 36  1  6
  3 37  1  0
  3 38  1  0
  4 39  1  0
  4 40  1  0
  5 41  1  1
  8 42  1  0
  8 43  1  0
  8 44  1  0
  9 45  1  0
  9 46  1  0
  9 47  1  0
 10 48  1  1
 11 49  1  0
 11 50  1  0
 12 51  1  0
 12 52  1  0
 14 53  1  0
 14 54  1  0
 14 55  1  0
 15 56  1  6
 16 57  1  0
 16 58  1  0
 17 59  1  0
 19 60  1  1
 20 61  1  0
 20 62  1  0
 21 63  1  0
 21 64  1  0
 22 65  1  1
 23 66  1  0
 25 67  1  0
 25 68  1  0
 25 69  1  0
 26 70  1  0
 26 71  1  0
 26 72  1  0
 28 73  1  0
 28 74  1  0
 28 75  1  0
 29 76  1  0
 29 77  1  0
 30 78  1  0
 30 79  1  0
 32 80  1  0
 32 81  1  0
 32 82  1  0
M  END
>  <meeko>  (17) 
{"is_sidechain": [false], "intermolecular_energy": 2.731, "internal_energy": -0.839}

$$$$
EPH_relaxed_0001_pdb2pqr_Repair_287_r2_0001_out
     RDKit          3D

 82 86  0  0  0  0  0  0  0  0999 V2000
    2.5110    9.6950   -1.9560 C   0  0  0  0  0  0  0  0  0  0  0  0
    1.0800   10.0670   -1.5590 C   0  0  2  0  0  0  0  0  0  0  0  0
    0.1220   10.0620   -2.7670 C   0  0  0  0  0  0  0  0  0  0  0  0
   -1.0190    9.0480   -2.6440 C   0  0  0  0  0  0  0  0  0  0  0  0
   -1.5000    8.9240   -1.2290 C   0  0  2  0  0  0  0  0  0  0  0  0
   -2.9230    8.9910   -1.0720 O   0  0  0  0  0  0  0  0  0  0  0  0
   -2.1680   10.0550   -0.4700 C   0  0  0  0  0  0  0  0  0  0  0  0
   -2.3920   11.3930   -1.1010 C   0  0  0  0  0  0  0  0  0  0  0  0
   -2.1590   10.0150    1.0260 C   0  0  0  0  0  0  0  0  0  0  0  0
    1.0650   11.4350   -0.8880 C   0  0  1  0  0  0  0  0  0  0  0  0
    1.7220   11.4190    0.5180 C   0  0  0  0  0  0  0  0  0  0  0  0
    2.4340   12.7850    0.6950 C   0  0  0  0  0  0  0  0  0  0  0  0
    1.8910   13.6600   -0.4590 C   0  0  1  0  0  0  0  0  0  0  0  0
    0.5060   14.1740    0.0450 C   0  0  0  0  0  0  0  0  0  0  0  0
    2.8090   14.8370   -0.9240 C   0  0  2  0  0  0  0  0  0  0  0  0
    3.0870   15.9090    0.1440 C   0  0  0  0  0  0  0  0  0  0  0  0
    2.1200   17.0460    0.1740 C   0  0  0  0  0  0  0  0  0  0  0  0
    1.2420   17.3510   -0.8000 C   0  0  0  0  0  0  0  0  0  0  0  0
    1.2280   16.5710   -2.1210 C   0  0  1  0  0  0  0  0  0  0  0  0
    1.1570   17.5670   -3.3090 C   0  0  0  0  0  0  0  0  0  0  0  0
   -0.0160   18.5350   -3.1900 C   0  0  0  0  0  0  0  0  0  0  0  0
    0.0640   19.3330   -1.8910 C   0  0  2  0  0  0  0  0  0  0  0  0
    1.2050   20.1950   -1.9490 O   0  0  0  0  0  0  0  0  0  0  0  0
    0.1500   18.4350   -0.6250 C   0  0  0  0  0  0  0  0  0  0  0  0
   -1.2070   17.7260   -0.3960 C   0  0  0  0  0  0  0  0  0  0  0  0
    0.3690   19.3610    0.6020 C   0  0  0  0  0  0  0  0  0  0  0  0
    2.3790   15.4900   -2.3000 C   0  0  1  0  0  0  0  0  0  0  0  0
    3.6550   16.1630   -2.8910 C   0  0  0  0  0  0  0  0  0  0  0  0
    1.9150   14.4150   -3.3530 C   0  0  0  0  0  0  0  0  0  0  0  0
    1.1140   13.2150   -2.8140 C   0  0  0  0  0  0  0  0  0  0  0  0
    1.8140   12.5870   -1.6050 C   0  0  2  0  0  0  0  0  0  0  0  0
    3.2020   12.0410   -2.0860 C   0  0  0  0  0  0  0  0  0  0  0  0
    3.1140    9.5382   -1.0495 H   0  0  0  0  0  0  0  0  0  0  0  0
    2.4976    8.7705   -2.5519 H   0  0  0  0  0  0  0  0  0  0  0  0
    2.9496   10.5090   -2.5519 H   0  0  0  0  0  0  0  0  0  0  0  0
    0.7240    9.3028   -0.8524 H   0  0  0  0  0  0  0  0  0  0  0  0
   -0.3153   11.0663   -2.8675 H   0  0  0  0  0  0  0  0  0  0  0  0
    0.7156    9.7726   -3.6467 H   0  0  0  0  0  0  0  0  0  0  0  0
   -1.8564    9.3749   -3.2779 H   0  0  0  0  0  0  0  0  0  0  0  0
   -0.6415    8.0661   -2.9654 H   0  0  0  0  0  0  0  0  0  0  0  0
   -0.6585    8.2621   -0.9766 H   0  0  0  0  0  0  0  0  0  0  0  0
   -2.5191   12.1523   -0.3153 H   0  0  0  0  0  0  0  0  0  0  0  0
   -1.5250   11.6535   -1.7258 H   0  0  0  0  0  0  0  0  0  0  0  0
   -3.2966   11.3569   -1.7258 H   0  0  0  0  0  0  0  0  0  0  0  0
   -2.3844   11.0166    1.4209 H   0  0  0  0  0  0  0  0  0  0  0  0
   -2.9192    9.3023    1.3783 H   0  0  0  0  0  0  0  0  0  0  0  0
   -1.1668    9.6966    1.3783 H   0  0  0  0  0  0  0  0  0  0  0  0
   -0.0176   11.6297   -0.8915 H   0  0  0  0  0  0  0  0  0  0  0  0
    0.9531   11.2893    1.2939 H   0  0  0  0  0  0  0  0  0  0  0  0
    2.4354   10.5869    0.6110 H   0  0  0  0  0  0  0  0  0  0  0  0
    2.1847   13.2295    1.6698 H   0  0  0  0  0  0  0  0  0  0  0  0
    3.5296   12.6911    0.6676 H   0  0  0  0  0  0  0  0  0  0  0  0
    0.4946   14.1782    1.1449 H   0  0  0  0  0  0  0  0  0  0  0  0
    0.3362   15.1950   -0.3274 H   0  0  0  0  0  0  0  0  0  0  0  0
   -0.2888   13.5110   -0.3274 H   0  0  0  0  0  0  0  0  0  0  0  0
    3.7705   14.3315   -1.0972 H   0  0  0  0  0  0  0  0  0  0  0  0
    3.0674   15.4202    1.1292 H   0  0  0  0  0  0  0  0  0  0  0  0
    4.0632   16.3468   -0.1116 H   0  0  0  0  0  0  0  0  0  0  0  0
    2.1253   17.6885    1.0668 H   0  0  0  0  0  0  0  0  0  0  0  0
    0.3200   15.9505   -2.0984 H   0  0  0  0  0  0  0  0  0  0  0  0
    2.0913   18.1468   -3.3396 H   0  0  0  0  0  0  0  0  0  0  0  0
    1.0148   16.9807   -4.2288 H   0  0  0  0  0  0  0  0  0  0  0  0
    0.0038   19.2309   -4.0417 H   0  0  0  0  0  0  0  0  0  0  0  0
   -0.9507   17.9551   -3.1885 H   0  0  0  0  0  0  0  0  0  0  0  0
   -0.8667   19.9124   -1.8014 H   0  0  0  0  0  0  0  0  0  0  0  0
    1.9970   19.6420   -1.8380 H   0  0  0  0  0  0  0  0  0  0  0  0
   -1.3924   17.6291    0.6839 H   0  0  0  0  0  0  0  0  0  0  0  0
   -2.0123   18.3186   -0.8546 H   0  0  0  0  0  0  0  0  0  0  0  0
   -1.1805   16.7265   -0.8546 H   0  0  0  0  0  0  0  0  0  0  0  0
    0.2321   18.7821    1.5273 H   0  0  0  0  0  0  0  0  0  0  0  0
    1.3891   19.7717    0.5740 H   0  0  0  0  0  0  0  0  0  0  0  0
   -0.3590   20.1851    0.5740 H   0  0  0  0  0  0  0  0  0  0  0  0
    4.3029   16.5047   -2.0703 H   0  0  0  0  0  0  0  0  0  0  0  0
    4.2002   15.4352   -3.5098 H   0  0  0  0  0  0  0  0  0  0  0  0
    3.3622   17.0240   -3.5098 H   0  0  0  0  0  0  0  0  0  0  0  0
    1.2869   14.9272   -4.0967 H   0  0  0  0  0  0  0  0  0  0  0  0
    2.8447   13.9840   -3.7529 H   0  0  0  0  0  0  0  0  0  0  0  0
    0.1128   13.5568   -2.5126 H   0  0  0  0  0  0  0  0  0  0  0  0
    1.0395   12.4578   -3.6084 H   0  0  0  0  0  0  0  0  0  0  0  0
    3.8230   11.7967   -1.2115 H   0  0  0  0  0  0  0  0  0  0  0  0
    3.0499   11.1357   -2.6921 H   0  0  0  0  0  0  0  0  0  0  0  0
    3.7074   12.8073   -2.6921 H   0  0  0  0  0  0  0  0  0  0  0  0
  1  2  1  0
  2  3  1  0
  3  4  1  0
  4  5  1  0
  5  6  1  0
  6  7  1  0
  7  8  1  0
  7  9  1  0
  2 10  1  0
 10 11  1  0
 11 12  1  0
 12 13  1  0
 13 14  1  1
 13 15  1  0
 15 16  1  0
 16 17  1  0
 17 18  2  0
 18 19  1  0
 19 20  1  0
 20 21  1  0
 21 22  1  0
 22 23  1  0
 22 24  1  0
 24 25  1  0
 24 26  1  0
 19 27  1  0
 27 28  1  6
 27 29  1  0
 29 30  1  0
 30 31  1  0
 31 32  1  6
  7  5  1  0
 31 10  1  0
 31 13  1  0
 27 15  1  0
 24 18  1  0
  1 33  1  0
  1 34  1  0
  1 35  1  0
  2 36  1  1
  3 37  1  0
  3 38  1  0
  4 39  1  0
  4 40  1  0
  5 41  1  1
  8 42  1  0
  8 43  1  0
  8 44  1  0
  9 45  1  0
  9 46  1  0
  9 47  1  0
 10 48  1  1
 11 49  1  0
 11 50  1  0
 12 51  1  0
 12 52  1  0
 14 53  1  0
 14 54  1  0
 14 55  1  0
 15 56  1  6
 16 57  1  0
 16 58  1  0
 17 59  1  0
 19 60  1  1
 20 61  1  0
 20 62  1  0
 21 63  1  0
 21 64  1  0
 22 65  1  1
 23 66  1  0
 25 67  1  0
 25 68  1  0
 25 69  1  0
 26 70  1  0
 26 71  1  0
 26 72  1  0
 28 73  1  0
 28 74  1  0
 28 75  1  0
 29 76  1  0
 29 77  1  0
 30 78  1  0
 30 79  1  0
 32 80  1  0
 32 81  1  0
 32 82  1  0
M  END
>  <meeko>  (18) 
{"is_sidechain": [false], "intermolecular_energy": 2.731, "internal_energy": -0.839}

$$$$
