EPH_relaxed_0001_pdb2pqr_Repair_148_r2_0001_out
     RDKit          3D

 82 86  0  0  0  0  0  0  0  0999 V2000
    4.5010   17.7180   -0.8200 C   0  0  0  0  0  0  0  0  0  0  0  0
    3.1250   18.2980   -0.4820 C   0  0  2  0  0  0  0  0  0  0  0  0
    3.0890   18.9280    0.9250 C   0  0  0  0  0  0  0  0  0  0  0  0
    4.3150   18.5940    1.7800 C   0  0  0  0  0  0  0  0  0  0  0  0
    4.2280   19.2180    3.1400 C   0  0  2  0  0  0  0  0  0  0  0  0
    5.2420   20.1940    3.4160 O   0  0  0  0  0  0  0  0  0  0  0  0
    5.2680   19.0070    4.2250 C   0  0  0  0  0  0  0  0  0  0  0  0
    6.4680   18.1420    3.9980 C   0  0  0  0  0  0  0  0  0  0  0  0
    4.8720   19.2390    5.6490 C   0  0  0  0  0  0  0  0  0  0  0  0
    2.0610   17.2120   -0.5940 C   0  0  1  0  0  0  0  0  0  0  0  0
    0.7220   17.7440   -1.1710 C   0  0  0  0  0  0  0  0  0  0  0  0
    0.1190   16.6010   -2.0280 C   0  0  0  0  0  0  0  0  0  0  0  0
    0.9500   15.3520   -1.6520 C   0  0  1  0  0  0  0  0  0  0  0  0
    0.3290   14.8450   -0.3120 C   0  0  0  0  0  0  0  0  0  0  0  0
    1.0130   14.2160   -2.7240 C   0  0  2  0  0  0  0  0  0  0  0  0
   -0.3390   13.5690   -3.0710 C   0  0  0  0  0  0  0  0  0  0  0  0
   -0.7090   12.3820   -2.2440 C   0  0  0  0  0  0  0  0  0  0  0  0
    0.1320   11.6840   -1.4590 C   0  0  0  0  0  0  0  0  0  0  0  0
    1.6300   12.0100   -1.4220 C   0  0  1  0  0  0  0  0  0  0  0  0
    2.4490   10.6970   -1.5290 C   0  0  0  0  0  0  0  0  0  0  0  0
    2.0500    9.6710   -0.4730 C   0  0  0  0  0  0  0  0  0  0  0  0
    0.5660    9.3280   -0.5790 C   0  0  2  0  0  0  0  0  0  0  0  0
    0.3390    8.6440   -1.8150 O   0  0  0  0  0  0  0  0  0  0  0  0
   -0.3580   10.5750   -0.4940 C   0  0  0  0  0  0  0  0  0  0  0  0
   -0.3370   11.1410    0.9470 C   0  0  0  0  0  0  0  0  0  0  0  0
   -1.8150   10.1080   -0.7570 C   0  0  0  0  0  0  0  0  0  0  0  0
    2.1230   13.1220   -2.4450 C   0  0  1  0  0  0  0  0  0  0  0  0
    2.4590   12.4680   -3.8200 C   0  0  0  0  0  0  0  0  0  0  0  0
    3.4640   13.7520   -1.9140 C   0  0  0  0  0  0  0  0  0  0  0  0
    3.3360   14.9480   -0.9500 C   0  0  0  0  0  0  0  0  0  0  0  0
    2.3740   16.0010   -1.5090 C   0  0  2  0  0  0  0  0  0  0  0  0
    2.9840   16.5450   -2.8460 C   0  0  0  0  0  0  0  0  0  0  0  0
    5.0415   17.4902    0.1106 H   0  0  0  0  0  0  0  0  0  0  0  0
    4.3762   16.7959   -1.4067 H   0  0  0  0  0  0  0  0  0  0  0  0
    5.0739   18.4512   -1.4067 H   0  0  0  0  0  0  0  0  0  0  0  0
    2.9169   19.0986   -1.2070 H   0  0  0  0  0  0  0  0  0  0  0  0
    3.0296   20.0209    0.8149 H   0  0  0  0  0  0  0  0  0  0  0  0
    2.2126   18.5103    1.4422 H   0  0  0  0  0  0  0  0  0  0  0  0
    4.3846   17.5020    1.8924 H   0  0  0  0  0  0  0  0  0  0  0  0
    5.2057   18.9954    1.2745 H   0  0  0  0  0  0  0  0  0  0  0  0
    3.1321   19.1234    3.1400 H   0  0  0  0  0  0  0  0  0  0  0  0
    6.8896   17.8381    4.9675 H   0  0  0  0  0  0  0  0  0  0  0  0
    6.1730   17.2475    3.4298 H   0  0  0  0  0  0  0  0  0  0  0  0
    7.2234   18.7047    3.4298 H   0  0  0  0  0  0  0  0  0  0  0  0
    5.6266   18.7969    6.3161 H   0  0  0  0  0  0  0  0  0  0  0  0
    4.8031   20.3203    5.8389 H   0  0  0  0  0  0  0  0  0  0  0  0
    3.8951   18.7704    5.8389 H   0  0  0  0  0  0  0  0  0  0  0  0
    2.0170   16.8885    0.4564 H   0  0  0  0  0  0  0  0  0  0  0  0
    0.0350   18.0072   -0.3532 H   0  0  0  0  0  0  0  0  0  0  0  0
    0.8841   18.6482   -1.7761 H   0  0  0  0  0  0  0  0  0  0  0  0
   -0.9425   16.4497   -1.7822 H   0  0  0  0  0  0  0  0  0  0  0  0
    0.1600   16.8208   -3.1050 H   0  0  0  0  0  0  0  0  0  0  0  0
    0.8726   15.2888    0.5351 H   0  0  0  0  0  0  0  0  0  0  0  0
   -0.7295   15.1403   -0.2636 H   0  0  0  0  0  0  0  0  0  0  0  0
    0.4065   13.7488   -0.2636 H   0  0  0  0  0  0  0  0  0  0  0  0
    1.3224   14.7622   -3.6273 H   0  0  0  0  0  0  0  0  0  0  0  0
   -1.1228   14.3301   -2.9430 H   0  0  0  0  0  0  0  0  0  0  0  0
   -0.2449   13.2028   -4.1040 H   0  0  0  0  0  0  0  0  0  0  0  0
   -1.7572   12.0503   -2.2795 H   0  0  0  0  0  0  0  0  0  0  0  0
    1.8135   12.4855   -0.4472 H   0  0  0  0  0  0  0  0  0  0  0  0
    2.2856   10.2597   -2.5250 H   0  0  0  0  0  0  0  0  0  0  0  0
    3.5072   10.9494   -1.3663 H   0  0  0  0  0  0  0  0  0  0  0  0
    2.6424    8.7556   -0.6185 H   0  0  0  0  0  0  0  0  0  0  0  0
    2.2413   10.0988    0.5222 H   0  0  0  0  0  0  0  0  0  0  0  0
    0.3117    8.6903    0.2805 H   0  0  0  0  0  0  0  0  0  0  0  0
    1.1090    8.0760   -1.9830 H   0  0  0  0  0  0  0  0  0  0  0  0
   -0.3678   10.3105    1.6676 H   0  0  0  0  0  0  0  0  0  0  0  0
    0.5834   11.7240    1.0986 H   0  0  0  0  0  0  0  0  0  0  0  0
   -1.2117   11.7906    1.0986 H   0  0  0  0  0  0  0  0  0  0  0  0
   -2.3264    9.9441    0.2030 H   0  0  0  0  0  0  0  0  0  0  0  0
   -2.3496   10.8798   -1.3302 H   0  0  0  0  0  0  0  0  0  0  0  0
   -1.8013    9.1692   -1.3302 H   0  0  0  0  0  0  0  0  0  0  0  0
    2.9559   11.5007   -3.6543 H   0  0  0  0  0  0  0  0  0  0  0  0
    1.5302   12.3105   -4.3879 H   0  0  0  0  0  0  0  0  0  0  0  0
    3.1279   13.1314   -4.3879 H   0  0  0  0  0  0  0  0  0  0  0  0
    4.0191   12.9601   -1.3899 H   0  0  0  0  0  0  0  0  0  0  0  0
    3.9664   14.1539   -2.8062 H   0  0  0  0  0  0  0  0  0  0  0  0
    2.9556   14.5908    0.0184 H   0  0  0  0  0  0  0  0  0  0  0  0
    4.3276   15.4081   -0.8276 H   0  0  0  0  0  0  0  0  0  0  0  0
    3.7871   17.2612   -2.6179 H   0  0  0  0  0  0  0  0  0  0  0  0
    3.3943   15.7075   -3.4293 H   0  0  0  0  0  0  0  0  0  0  0  0
    2.1988   17.0481   -3.4293 H   0  0  0  0  0  0  0  0  0  0  0  0
  1  2  1  0
  2  3  1  0
  3  4  1  0
  4  5  1  0
  5  6  1  0
  6  7  1  0
  7  8  1  0
  7  9  1  0
  2 10  1  0
 10 11  1  0
 11 12  1  0
 12 13  1  0
 13 14  1  1
 13 15  1  0
 15 16  1  0
 16 17  1  0
 17 18  2  0
 18 19  1  0
 19 20  1  0
 20 21  1  0
 21 22  1  0
 22 23  1  0
 22 24  1  0
 24 25  1  0
 24 26  1  0
 19 27  1  0
 27 28  1  6
 27 29  1  0
 29 30  1  0
 30 31  1  0
 31 32  1  6
  7  5  1  0
 31 10  1  0
 31 13  1  0
 27 15  1  0
 24 18  1  0
  1 33  1  0
  1 34  1  0
  1 35  1  0
  2 36  1  6
  3 37  1  0
  3 38  1  0
  4 39  1  0
  4 40  1  0
  5 41  1  1
  8 42  1  0
  8 43  1  0
  8 44  1  0
  9 45  1  0
  9 46  1  0
  9 47  1  0
 10 48  1  1
 11 49  1  0
 11 50  1  0
 12 51  1  0
 12 52  1  0
 14 53  1  0
 14 54  1  0
 14 55  1  0
 15 56  1  6
 16 57  1  0
 16 58  1  0
 17 59  1  0
 19 60  1  1
 20 61  1  0
 20 62  1  0
 21 63  1  0
 21 64  1  0
 22 65  1  1
 23 66  1  0
 25 67  1  0
 25 68  1  0
 25 69  1  0
 26 70  1  0
 26 71  1  0
 26 72  1  0
 28 73  1  0
 28 74  1  0
 28 75  1  0
 29 76  1  0
 29 77  1  0
 30 78  1  0
 30 79  1  0
 32 80  1  0
 32 81  1  0
 32 82  1  0
M  END
>  <meeko>  (1) 
{"is_sidechain": [false], "intermolecular_energy": 2.731, "internal_energy": -0.839}

$$$$
EPH_relaxed_0001_pdb2pqr_Repair_148_r2_0001_out
     RDKit          3D

 82 86  0  0  0  0  0  0  0  0999 V2000
    3.8830   17.9740    0.5530 C   0  0  0  0  0  0  0  0  0  0  0  0
    2.9680   18.3740   -0.6080 C   0  0  2  0  0  0  0  0  0  0  0  0
    2.2230   19.6960   -0.3320 C   0  0  0  0  0  0  0  0  0  0  0  0
    1.1760   19.5920    0.7790 C   0  0  0  0  0  0  0  0  0  0  0  0
   -0.1420   20.1660    0.3550 C   0  0  2  0  0  0  0  0  0  0  0  0
   -1.1420   20.1940    1.3820 O   0  0  0  0  0  0  0  0  0  0  0  0
   -1.4160   19.3490    0.2520 C   0  0  0  0  0  0  0  0  0  0  0  0
   -1.4350   17.8880    0.5760 C   0  0  0  0  0  0  0  0  0  0  0  0
   -2.5210   19.8530   -0.6230 C   0  0  0  0  0  0  0  0  0  0  0  0
    1.9650   17.2600   -0.8870 C   0  0  1  0  0  0  0  0  0  0  0  0
    0.8220   17.7100   -1.8350 C   0  0  0  0  0  0  0  0  0  0  0  0
    0.4550   16.4820   -2.7080 C   0  0  0  0  0  0  0  0  0  0  0  0
    1.1570   15.2890   -2.0170 C   0  0  1  0  0  0  0  0  0  0  0  0
    0.2110   14.8930   -0.8410 C   0  0  0  0  0  0  0  0  0  0  0  0
    1.4910   14.0620   -2.9270 C   0  0  2  0  0  0  0  0  0  0  0  0
    0.2710   13.3590   -3.5470 C   0  0  0  0  0  0  0  0  0  0  0  0
   -0.3030   12.2450   -2.7360 C   0  0  0  0  0  0  0  0  0  0  0  0
    0.3050   11.6380   -1.7000 C   0  0  0  0  0  0  0  0  0  0  0  0
    1.7450   11.9980   -1.3100 C   0  0  1  0  0  0  0  0  0  0  0  0
    2.5600   10.6980   -1.0810 C   0  0  0  0  0  0  0  0  0  0  0  0
    1.8990    9.7630   -0.0720 C   0  0  0  0  0  0  0  0  0  0  0  0
    0.4910    9.3810   -0.5230 C   0  0  2  0  0  0  0  0  0  0  0  0
    0.5870    8.5830   -1.7070 O   0  0  0  0  0  0  0  0  0  0  0  0
   -0.4200   10.6110   -0.7940 C   0  0  0  0  0  0  0  0  0  0  0  0
   -0.7690   11.3060    0.5450 C   0  0  0  0  0  0  0  0  0  0  0  0
   -1.7620   10.0920   -1.3770 C   0  0  0  0  0  0  0  0  0  0  0  0
    2.4880   13.0220   -2.2720 C   0  0  1  0  0  0  0  0  0  0  0  0
    3.1640   12.2530   -3.4480 C   0  0  0  0  0  0  0  0  0  0  0  0
    3.6490   13.7260   -1.4750 C   0  0  0  0  0  0  0  0  0  0  0  0
    3.2810   15.0010   -0.6930 C   0  0  0  0  0  0  0  0  0  0  0  0
    2.4990   15.9790   -1.5740 C   0  0  2  0  0  0  0  0  0  0  0  0
    3.4340   16.4120   -2.7550 C   0  0  0  0  0  0  0  0  0  0  0  0
    3.3817   18.1932    1.5073 H   0  0  0  0  0  0  0  0  0  0  0  0
    4.1025   16.8978    0.4928 H   0  0  0  0  0  0  0  0  0  0  0  0
    4.8221   18.5437    0.4928 H   0  0  0  0  0  0  0  0  0  0  0  0
    3.6044   18.5318   -1.4912 H   0  0  0  0  0  0  0  0  0  0  0  0
    2.9623   20.4572   -0.0422 H   0  0  0  0  0  0  0  0  0  0  0  0
    1.6868   19.9614   -1.2550 H   0  0  0  0  0  0  0  0  0  0  0  0
    1.0362   18.5323    1.0388 H   0  0  0  0  0  0  0  0  0  0  0  0
    1.5371   20.1662    1.6450 H   0  0  0  0  0  0  0  0  0  0  0  0
    0.3558   20.8484   -0.3496 H   0  0  0  0  0  0  0  0  0  0  0  0
   -1.4367   17.7546    1.6679 H   0  0  0  0  0  0  0  0  0  0  0  0
   -2.3392   17.4295    0.1491 H   0  0  0  0  0  0  0  0  0  0  0  0
   -0.5430   17.4061    0.1491 H   0  0  0  0  0  0  0  0  0  0  0  0
   -3.3432   20.2280    0.0041 H   0  0  0  0  0  0  0  0  0  0  0  0
   -2.1432   20.6678   -1.2581 H   0  0  0  0  0  0  0  0  0  0  0  0
   -2.8886   19.0335   -1.2581 H   0  0  0  0  0  0  0  0  0  0  0  0
    1.6509   17.0316    0.1422 H   0  0  0  0  0  0  0  0  0  0  0  0
   -0.0512   18.0327   -1.2490 H   0  0  0  0  0  0  0  0  0  0  0  0
    1.1381   18.5584   -2.4598 H   0  0  0  0  0  0  0  0  0  0  0  0
   -0.6346   16.3323   -2.7293 H   0  0  0  0  0  0  0  0  0  0  0  0
    0.7721   16.6039   -3.7542 H   0  0  0  0  0  0  0  0  0  0  0  0
    0.7097   15.1018    0.1170 H   0  0  0  0  0  0  0  0  0  0  0  0
   -0.7186   15.4775   -0.9055 H   0  0  0  0  0  0  0  0  0  0  0  0
   -0.0250   13.8205   -0.9055 H   0  0  0  0  0  0  0  0  0  0  0  0
    2.0250   14.5291   -3.7676 H   0  0  0  0  0  0  0  0  0  0  0  0
   -0.5166   14.1125   -3.6951 H   0  0  0  0  0  0  0  0  0  0  0  0
    0.6257   12.9028   -4.4830 H   0  0  0  0  0  0  0  0  0  0  0  0
   -1.3080   11.8901   -3.0081 H   0  0  0  0  0  0  0  0  0  0  0  0
    1.6729   12.5639   -0.3695 H   0  0  0  0  0  0  0  0  0  0  0  0
    2.6573   10.1692   -2.0406 H   0  0  0  0  0  0  0  0  0  0  0  0
    3.5414   10.9861   -0.6762 H   0  0  0  0  0  0  0  0  0  0  0  0
    2.5059    8.8507    0.0248 H   0  0  0  0  0  0  0  0  0  0  0  0
    1.8291   10.2828    0.8949 H   0  0  0  0  0  0  0  0  0  0  0  0
    0.0225    8.8186    0.2981 H   0  0  0  0  0  0  0  0  0  0  0  0
    0.2930    7.6840   -1.4800 H   0  0  0  0  0  0  0  0  0  0  0  0
   -0.4492   10.6691    1.3829 H   0  0  0  0  0  0  0  0  0  0  0  0
   -0.2502   12.2743    0.6016 H   0  0  0  0  0  0  0  0  0  0  0  0
   -1.8555   11.4682    0.6016 H   0  0  0  0  0  0  0  0  0  0  0  0
   -2.4422    9.8289   -0.5535 H   0  0  0  0  0  0  0  0  0  0  0  0
   -2.2213   10.8773   -1.9953 H   0  0  0  0  0  0  0  0  0  0  0  0
   -1.5734    9.2020   -1.9953 H   0  0  0  0  0  0  0  0  0  0  0  0
    3.8394   11.4847   -3.0435 H   0  0  0  0  0  0  0  0  0  0  0  0
    2.3902   11.7729   -4.0650 H   0  0  0  0  0  0  0  0  0  0  0  0
    3.7393   12.9589   -4.0650 H   0  0  0  0  0  0  0  0  0  0  0  0
    4.0475   12.9969   -0.7542 H   0  0  0  0  0  0  0  0  0  0  0  0
    4.3658   14.0554   -2.2416 H   0  0  0  0  0  0  0  0  0  0  0  0
    2.6631   14.7252    0.1743 H   0  0  0  0  0  0  0  0  0  0  0  0
    4.2096   15.4908   -0.3647 H   0  0  0  0  0  0  0  0  0  0  0  0
    4.3619   16.8417   -2.3495 H   0  0  0  0  0  0  0  0  0  0  0  0
    3.6756   15.5341   -3.3722 H   0  0  0  0  0  0  0  0  0  0  0  0
    2.9208   17.1641   -3.3722 H   0  0  0  0  0  0  0  0  0  0  0  0
  1  2  1  0
  2  3  1  0
  3  4  1  0
  4  5  1  0
  5  6  1  0
  6  7  1  0
  7  8  1  0
  7  9  1  0
  2 10  1  0
 10 11  1  0
 11 12  1  0
 12 13  1  0
 13 14  1  1
 13 15  1  0
 15 16  1  0
 16 17  1  0
 17 18  2  0
 18 19  1  0
 19 20  1  0
 20 21  1  0
 21 22  1  0
 22 23  1  0
 22 24  1  0
 24 25  1  0
 24 26  1  0
 19 27  1  0
 27 28  1  6
 27 29  1  0
 29 30  1  0
 30 31  1  0
 31 32  1  6
  7  5  1  0
 31 10  1  0
 31 13  1  0
 27 15  1  0
 24 18  1  0
  1 33  1  0
  1 34  1  0
  1 35  1  0
  2 36  1  6
  3 37  1  0
  3 38  1  0
  4 39  1  0
  4 40  1  0
  5 41  1  6
  8 42  1  0
  8 43  1  0
  8 44  1  0
  9 45  1  0
  9 46  1  0
  9 47  1  0
 10 48  1  1
 11 49  1  0
 11 50  1  0
 12 51  1  0
 12 52  1  0
 14 53  1  0
 14 54  1  0
 14 55  1  0
 15 56  1  6
 16 57  1  0
 16 58  1  0
 17 59  1  0
 19 60  1  1
 20 61  1  0
 20 62  1  0
 21 63  1  0
 21 64  1  0
 22 65  1  1
 23 66  1  0
 25 67  1  0
 25 68  1  0
 25 69  1  0
 26 70  1  0
 26 71  1  0
 26 72  1  0
 28 73  1  0
 28 74  1  0
 28 75  1  0
 29 76  1  0
 29 77  1  0
 30 78  1  0
 30 79  1  0
 32 80  1  0
 32 81  1  0
 32 82  1  0
M  END
>  <meeko>  (2) 
{"is_sidechain": [false], "intermolecular_energy": 2.731, "internal_energy": -0.839}

$$$$
EPH_relaxed_0001_pdb2pqr_Repair_148_r2_0001_out
     RDKit          3D

 82 86  0  0  0  0  0  0  0  0999 V2000
    2.4540   18.1450   -2.2830 C   0  0  0  0  0  0  0  0  0  0  0  0
    1.7940   17.4260   -1.1040 C   0  0  2  0  0  0  0  0  0  0  0  0
    2.8180   17.0140   -0.0270 C   0  0  0  0  0  0  0  0  0  0  0  0
    3.8350   18.1100    0.3060 C   0  0  0  0  0  0  0  0  0  0  0  0
    3.5960   18.6920    1.6670 C   0  0  2  0  0  0  0  0  0  0  0  0
    3.9370   20.0790    1.7920 O   0  0  0  0  0  0  0  0  0  0  0  0
    4.7110   19.1610    2.5830 C   0  0  0  0  0  0  0  0  0  0  0  0
    6.1480   19.0690    2.1740 C   0  0  0  0  0  0  0  0  0  0  0  0
    4.4390   19.2530    4.0520 C   0  0  0  0  0  0  0  0  0  0  0  0
    1.0380   16.1990   -1.6000 C   0  0  1  0  0  0  0  0  0  0  0  0
    0.5050   16.3700   -3.0470 C   0  0  0  0  0  0  0  0  0  0  0  0
    0.5920   14.9780   -3.7240 C   0  0  0  0  0  0  0  0  0  0  0  0
    0.8540   13.9940   -2.5590 C   0  0  1  0  0  0  0  0  0  0  0  0
   -0.5500   13.7390   -1.9270 C   0  0  0  0  0  0  0  0  0  0  0  0
    1.5710   12.6560   -2.9330 C   0  0  2  0  0  0  0  0  0  0  0  0
    0.7960   11.7510   -3.9070 C   0  0  0  0  0  0  0  0  0  0  0  0
   -0.1150   10.7570   -3.2660 C   0  0  0  0  0  0  0  0  0  0  0  0
   -0.0950   10.4010   -1.9680 C   0  0  0  0  0  0  0  0  0  0  0  0
    0.9790   10.9470   -1.0180 C   0  0  1  0  0  0  0  0  0  0  0  0
    1.5620    9.7840   -0.1730 C   0  0  0  0  0  0  0  0  0  0  0  0
    0.4820    8.9940    0.5600 C   0  0  0  0  0  0  0  0  0  0  0  0
   -0.5350    8.4190   -0.4230 C   0  0  2  0  0  0  0  0  0  0  0  0
    0.1130    7.4310   -1.2300 O   0  0  0  0  0  0  0  0  0  0  0  0
   -1.1820    9.4970   -1.3360 C   0  0  0  0  0  0  0  0  0  0  0  0
   -2.1280   10.3900   -0.4960 C   0  0  0  0  0  0  0  0  0  0  0  0
   -2.0790    8.7690   -2.3720 C   0  0  0  0  0  0  0  0  0  0  0  0
    2.1100   11.8400   -1.6890 C   0  0  1  0  0  0  0  0  0  0  0  0
    3.2610   10.9310   -2.2180 C   0  0  0  0  0  0  0  0  0  0  0  0
    2.7470   12.7720   -0.5920 C   0  0  0  0  0  0  0  0  0  0  0  0
    2.0630   14.1320   -0.3530 C   0  0  0  0  0  0  0  0  0  0  0  0
    1.8210   14.8640   -1.6770 C   0  0  2  0  0  0  0  0  0  0  0  0
    3.2170   15.1550   -2.3250 C   0  0  0  0  0  0  0  0  0  0  0  0
    3.1523   18.9058   -1.9041 H   0  0  0  0  0  0  0  0  0  0  0  0
    3.0036   17.4156   -2.8961 H   0  0  0  0  0  0  0  0  0  0  0  0
    1.6803   18.6303   -2.8961 H   0  0  0  0  0  0  0  0  0  0  0  0
    1.0913   18.1325   -0.6380 H   0  0  0  0  0  0  0  0  0  0  0  0
    2.2711   16.7567    0.8921 H   0  0  0  0  0  0  0  0  0  0  0  0
    3.3841   16.1616   -0.4306 H   0  0  0  0  0  0  0  0  0  0  0  0
    4.8466   17.6792    0.2750 H   0  0  0  0  0  0  0  0  0  0  0  0
    3.7271   18.9153   -0.4355 H   0  0  0  0  0  0  0  0  0  0  0  0
    2.7403   18.0205    1.8309 H   0  0  0  0  0  0  0  0  0  0  0  0
    6.7828   19.0284    3.0714 H   0  0  0  0  0  0  0  0  0  0  0  0
    6.3012   18.1592    1.5750 H   0  0  0  0  0  0  0  0  0  0  0  0
    6.4160   19.9518    1.5750 H   0  0  0  0  0  0  0  0  0  0  0  0
    5.3365   18.9494    4.6108 H   0  0  0  0  0  0  0  0  0  0  0  0
    4.1781   20.2894    4.3124 H   0  0  0  0  0  0  0  0  0  0  0  0
    3.6025   18.5878    4.3124 H   0  0  0  0  0  0  0  0  0  0  0  0
    0.2610   16.1355   -0.8240 H   0  0  0  0  0  0  0  0  0  0  0  0
   -0.5386   16.7170   -3.0276 H   0  0  0  0  0  0  0  0  0  0  0  0
    1.0959   17.1153   -3.5997 H   0  0  0  0  0  0  0  0  0  0  0  0
   -0.3519   14.7342   -4.2336 H   0  0  0  0  0  0  0  0  0  0  0  0
    1.3790   14.9354   -4.4914 H   0  0  0  0  0  0  0  0  0  0  0  0
   -0.4666   13.7541   -0.8303 H   0  0  0  0  0  0  0  0  0  0  0  0
   -1.2470   14.5253   -2.2526 H   0  0  0  0  0  0  0  0  0  0  0  0
   -0.9260   12.7579   -2.2526 H   0  0  0  0  0  0  0  0  0  0  0  0
    2.4523   13.0075   -3.4895 H   0  0  0  0  0  0  0  0  0  0  0  0
    0.1899   12.3955   -4.5606 H   0  0  0  0  0  0  0  0  0  0  0  0
    1.5544   11.1649   -4.4468 H   0  0  0  0  0  0  0  0  0  0  0  0
   -0.8661   10.2747   -3.9088 H   0  0  0  0  0  0  0  0  0  0  0  0
    0.4669   11.6659   -0.3615 H   0  0  0  0  0  0  0  0  0  0  0  0
    2.1060    9.1007   -0.8417 H   0  0  0  0  0  0  0  0  0  0  0  0
    2.2267   10.2233    0.5854 H   0  0  0  0  0  0  0  0  0  0  0  0
    0.9531    8.1690    1.1144 H   0  0  0  0  0  0  0  0  0  0  0  0
   -0.0413    9.6718    1.2505 H   0  0  0  0  0  0  0  0  0  0  0  0
   -1.3516    7.9775    0.1672 H   0  0  0  0  0  0  0  0  0  0  0  0
    0.9090    7.1380   -0.7540 H   0  0  0  0  0  0  0  0  0  0  0  0
   -1.9429   10.2153    0.5741 H   0  0  0  0  0  0  0  0  0  0  0  0
   -1.9400   11.4477   -0.7327 H   0  0  0  0  0  0  0  0  0  0  0  0
   -3.1731   10.1414   -0.7327 H   0  0  0  0  0  0  0  0  0  0  0  0
   -2.8286    8.1606   -1.8447 H   0  0  0  0  0  0  0  0  0  0  0  0
   -2.5881    9.5125   -3.0029 H   0  0  0  0  0  0  0  0  0  0  0  0
   -1.4562    8.1178   -3.0029 H   0  0  0  0  0  0  0  0  0  0  0  0
    3.8078   10.4991   -1.3668 H   0  0  0  0  0  0  0  0  0  0  0  0
    2.8370   10.1214   -2.8302 H   0  0  0  0  0  0  0  0  0  0  0  0
    3.9503   11.5311   -2.8302 H   0  0  0  0  0  0  0  0  0  0  0  0
    2.7348   12.2215    0.3603 H   0  0  0  0  0  0  0  0  0  0  0  0
    3.7505   13.0171   -0.9701 H   0  0  0  0  0  0  0  0  0  0  0  0
    1.0980   13.9663    0.1483 H   0  0  0  0  0  0  0  0  0  0  0  0
    2.7215   14.7505    0.2746 H   0  0  0  0  0  0  0  0  0  0  0  0
    3.9638   15.3107   -1.5325 H   0  0  0  0  0  0  0  0  0  0  0  0
    3.5171   14.3001   -2.9488 H   0  0  0  0  0  0  0  0  0  0  0  0
    3.1505   16.0586   -2.9488 H   0  0  0  0  0  0  0  0  0  0  0  0
  1  2  1  0
  2  3  1  0
  3  4  1  0
  4  5  1  0
  5  6  1  0
  6  7  1  0
  7  8  1  0
  7  9  1  0
  2 10  1  0
 10 11  1  0
 11 12  1  0
 12 13  1  0
 13 14  1  1
 13 15  1  0
 15 16  1  0
 16 17  1  0
 17 18  2  0
 18 19  1  0
 19 20  1  0
 20 21  1  0
 21 22  1  0
 22 23  1  0
 22 24  1  0
 24 25  1  0
 24 26  1  0
 19 27  1  0
 27 28  1  6
 27 29  1  0
 29 30  1  0
 30 31  1  0
 31 32  1  6
  7  5  1  0
 31 10  1  0
 31 13  1  0
 27 15  1  0
 24 18  1  0
  1 33  1  0
  1 34  1  0
  1 35  1  0
  2 36  1  1
  3 37  1  0
  3 38  1  0
  4 39  1  0
  4 40  1  0
  5 41  1  1
  8 42  1  0
  8 43  1  0
  8 44  1  0
  9 45  1  0
  9 46  1  0
  9 47  1  0
 10 48  1  1
 11 49  1  0
 11 50  1  0
 12 51  1  0
 12 52  1  0
 14 53  1  0
 14 54  1  0
 14 55  1  0
 15 56  1  6
 16 57  1  0
 16 58  1  0
 17 59  1  0
 19 60  1  1
 20 61  1  0
 20 62  1  0
 21 63  1  0
 21 64  1  0
 22 65  1  1
 23 66  1  0
 25 67  1  0
 25 68  1  0
 25 69  1  0
 26 70  1  0
 26 71  1  0
 26 72  1  0
 28 73  1  0
 28 74  1  0
 28 75  1  0
 29 76  1  0
 29 77  1  0
 30 78  1  0
 30 79  1  0
 32 80  1  0
 32 81  1  0
 32 82  1  0
M  END
>  <meeko>  (3) 
{"is_sidechain": [false], "intermolecular_energy": 2.731, "internal_energy": -0.839}

$$$$
EPH_relaxed_0001_pdb2pqr_Repair_148_r2_0001_out
     RDKit          3D

 82 86  0  0  0  0  0  0  0  0999 V2000
   -1.1330    8.8120   -1.9100 C   0  0  0  0  0  0  0  0  0  0  0  0
   -1.5560    9.1920   -0.4880 C   0  0  2  0  0  0  0  0  0  0  0  0
   -3.0850    9.3340   -0.3550 C   0  0  0  0  0  0  0  0  0  0  0  0
   -3.8730    8.4050   -1.2830 C   0  0  0  0  0  0  0  0  0  0  0  0
   -5.2240    8.0770   -0.7230 C   0  0  2  0  0  0  0  0  0  0  0  0
   -5.4600    6.6800   -0.5080 O   0  0  0  0  0  0  0  0  0  0  0  0
   -6.2880    7.3180   -1.4940 C   0  0  0  0  0  0  0  0  0  0  0  0
   -6.0460    6.8410   -2.8920 C   0  0  0  0  0  0  0  0  0  0  0  0
   -7.7170    7.4670   -1.0770 C   0  0  0  0  0  0  0  0  0  0  0  0
   -0.8740   10.4900   -0.0720 C   0  0  1  0  0  0  0  0  0  0  0  0
    0.0570   10.3090    1.1570 C   0  0  0  0  0  0  0  0  0  0  0  0
    1.2590   11.2670    0.9520 C   0  0  0  0  0  0  0  0  0  0  0  0
    0.8230   12.1980   -0.2030 C   0  0  1  0  0  0  0  0  0  0  0  0
   -0.0830   13.2760    0.4710 C   0  0  0  0  0  0  0  0  0  0  0  0
    1.9740   12.8510   -1.0360 C   0  0  2  0  0  0  0  0  0  0  0  0
    2.9020   13.7890   -0.2440 C   0  0  0  0  0  0  0  0  0  0  0  0
    2.4870   15.2230   -0.2180 C   0  0  0  0  0  0  0  0  0  0  0  0
    1.5790   15.7900   -1.0340 C   0  0  0  0  0  0  0  0  0  0  0  0
    0.9350   14.9890   -2.1730 C   0  0  1  0  0  0  0  0  0  0  0  0
    0.9550   15.8320   -3.4750 C   0  0  0  0  0  0  0  0  0  0  0  0
    0.3160   17.2050   -3.2930 C   0  0  0  0  0  0  0  0  0  0  0  0
    1.0200   17.9930   -2.1920 C   0  0  2  0  0  0  0  0  0  0  0  0
    2.3510   18.2980   -2.6220 O   0  0  0  0  0  0  0  0  0  0  0  0
    1.0710   17.2380   -0.8340 C   0  0  0  0  0  0  0  0  0  0  0  0
   -0.3500   17.1750   -0.2210 C   0  0  0  0  0  0  0  0  0  0  0  0
    1.9290   18.0800    0.1480 C   0  0  0  0  0  0  0  0  0  0  0  0
    1.4960   13.5180   -2.3900 C   0  0  1  0  0  0  0  0  0  0  0  0
    2.7400   13.5560   -3.3300 C   0  0  0  0  0  0  0  0  0  0  0  0
    0.4060   12.6550   -3.1290 C   0  0  0  0  0  0  0  0  0  0  0  0
   -0.6310   11.9390   -2.2440 C   0  0  0  0  0  0  0  0  0  0  0  0
    0.0540   11.1700   -1.1100 C   0  0  2  0  0  0  0  0  0  0  0  0
    0.9550   10.0640   -1.7570 C   0  0  0  0  0  0  0  0  0  0  0  0
   -0.3154    8.0775   -1.8654 H   0  0  0  0  0  0  0  0  0  0  0  0
   -1.9901    8.3746   -2.4430 H   0  0  0  0  0  0  0  0  0  0  0  0
   -0.7897    9.7109   -2.4430 H   0  0  0  0  0  0  0  0  0  0  0  0
   -1.2414    8.3763    0.1796 H   0  0  0  0  0  0  0  0  0  0  0  0
   -3.3657    9.1066    0.6840 H   0  0  0  0  0  0  0  0  0  0  0  0
   -3.3381   10.3652   -0.6423 H   0  0  0  0  0  0  0  0  0  0  0  0
   -4.0015    8.8995   -2.2571 H   0  0  0  0  0  0  0  0  0  0  0  0
   -3.3087    7.4667   -1.3884 H   0  0  0  0  0  0  0  0  0  0  0  0
   -5.2509    9.0272   -0.1695 H   0  0  0  0  0  0  0  0  0  0  0  0
   -5.5485    5.8603   -2.8639 H   0  0  0  0  0  0  0  0  0  0  0  0
   -7.0068    6.7497   -3.4198 H   0  0  0  0  0  0  0  0  0  0  0  0
   -5.4049    7.5624   -3.4198 H   0  0  0  0  0  0  0  0  0  0  0  0
   -7.7797    7.4735    0.0212 H   0  0  0  0  0  0  0  0  0  0  0  0
   -8.1179    8.4118   -1.4728 H   0  0  0  0  0  0  0  0  0  0  0  0
   -8.3041    6.6252   -1.4728 H   0  0  0  0  0  0  0  0  0  0  0  0
   -1.7612   11.1153    0.1065 H   0  0  0  0  0  0  0  0  0  0  0  0
   -0.4807   10.5680    2.0810 H   0  0  0  0  0  0  0  0  0  0  0  0
    0.3940    9.2658    1.2472 H   0  0  0  0  0  0  0  0  0  0  0  0
    1.4535   11.8471    1.8661 H   0  0  0  0  0  0  0  0  0  0  0  0
    2.1892   10.7262    0.7235 H   0  0  0  0  0  0  0  0  0  0  0  0
   -0.0077   13.1864    1.5648 H   0  0  0  0  0  0  0  0  0  0  0  0
    0.2477   14.2784    0.1616 H   0  0  0  0  0  0  0  0  0  0  0  0
   -1.1274   13.1227    0.1616 H   0  0  0  0  0  0  0  0  0  0  0  0
    2.5906   11.9818   -1.3084 H   0  0  0  0  0  0  0  0  0  0  0  0
    2.9442   13.4284    0.7943 H   0  0  0  0  0  0  0  0  0  0  0  0
    3.8736   13.7624   -0.7591 H   0  0  0  0  0  0  0  0  0  0  0  0
    2.9639   15.8713    0.5318 H   0  0  0  0  0  0  0  0  0  0  0  0
   -0.1044   14.8039   -1.8641 H   0  0  0  0  0  0  0  0  0  0  0  0
    1.9999   15.9685   -3.7907 H   0  0  0  0  0  0  0  0  0  0  0  0
    0.3705   15.2896   -4.2328 H   0  0  0  0  0  0  0  0  0  0  0  0
    0.3881   17.7637   -4.2378 H   0  0  0  0  0  0  0  0  0  0  0  0
   -0.7372   17.0668   -3.0071 H   0  0  0  0  0  0  0  0  0  0  0  0
    0.4375   18.9100   -2.0196 H   0  0  0  0  0  0  0  0  0  0  0  0
    2.4850   19.2540   -2.5090 H   0  0  0  0  0  0  0  0  0  0  0  0
   -0.2763   17.1783    0.8765 H   0  0  0  0  0  0  0  0  0  0  0  0
   -0.9312   18.0483   -0.5521 H   0  0  0  0  0  0  0  0  0  0  0  0
   -0.8516   16.2537   -0.5521 H   0  0  0  0  0  0  0  0  0  0  0  0
    1.6634   17.8193    1.1831 H   0  0  0  0  0  0  0  0  0  0  0  0
    2.9949   17.8676   -0.0216 H   0  0  0  0  0  0  0  0  0  0  0  0
    1.7367   19.1497   -0.0216 H   0  0  0  0  0  0  0  0  0  0  0  0
    3.6572   13.5840   -2.7234 H   0  0  0  0  0  0  0  0  0  0  0  0
    2.7475   12.6577   -3.9648 H   0  0  0  0  0  0  0  0  0  0  0  0
    2.6927   14.4531   -3.9648 H   0  0  0  0  0  0  0  0  0  0  0  0
   -0.1421   13.3232   -3.8095 H   0  0  0  0  0  0  0  0  0  0  0  0
    0.9657   11.8488   -3.6257 H   0  0  0  0  0  0  0  0  0  0  0  0
   -1.3125   12.6864   -1.8116 H   0  0  0  0  0  0  0  0  0  0  0  0
   -1.1889   11.2236   -2.8660 H   0  0  0  0  0  0  0  0  0  0  0  0
    1.4365    9.4730   -0.9640 H   0  0  0  0  0  0  0  0  0  0  0  0
    0.3343    9.4039   -2.3807 H   0  0  0  0  0  0  0  0  0  0  0  0
    1.7270   10.5384   -2.3807 H   0  0  0  0  0  0  0  0  0  0  0  0
  1  2  1  0
  2  3  1  0
  3  4  1  0
  4  5  1  0
  5  6  1  0
  6  7  1  0
  7  8  1  0
  7  9  1  0
  2 10  1  0
 10 11  1  0
 11 12  1  0
 12 13  1  0
 13 14  1  1
 13 15  1  0
 15 16  1  0
 16 17  1  0
 17 18  2  0
 18 19  1  0
 19 20  1  0
 20 21  1  0
 21 22  1  0
 22 23  1  0
 22 24  1  0
 24 25  1  0
 24 26  1  0
 19 27  1  0
 27 28  1  6
 27 29  1  0
 29 30  1  0
 30 31  1  0
 31 32  1  6
  7  5  1  0
 31 10  1  0
 31 13  1  0
 27 15  1  0
 24 18  1  0
  1 33  1  0
  1 34  1  0
  1 35  1  0
  2 36  1  1
  3 37  1  0
  3 38  1  0
  4 39  1  0
  4 40  1  0
  5 41  1  1
  8 42  1  0
  8 43  1  0
  8 44  1  0
  9 45  1  0
  9 46  1  0
  9 47  1  0
 10 48  1  1
 11 49  1  0
 11 50  1  0
 12 51  1  0
 12 52  1  0
 14 53  1  0
 14 54  1  0
 14 55  1  0
 15 56  1  6
 16 57  1  0
 16 58  1  0
 17 59  1  0
 19 60  1  1
 20 61  1  0
 20 62  1  0
 21 63  1  0
 21 64  1  0
 22 65  1  1
 23 66  1  0
 25 67  1  0
 25 68  1  0
 25 69  1  0
 26 70  1  0
 26 71  1  0
 26 72  1  0
 28 73  1  0
 28 74  1  0
 28 75  1  0
 29 76  1  0
 29 77  1  0
 30 78  1  0
 30 79  1  0
 32 80  1  0
 32 81  1  0
 32 82  1  0
M  END
>  <meeko>  (4) 
{"is_sidechain": [false], "intermolecular_energy": 2.731, "internal_energy": -0.839}

$$$$
EPH_relaxed_0001_pdb2pqr_Repair_148_r2_0001_out
     RDKit          3D

 82 86  0  0  0  0  0  0  0  0999 V2000
    4.0760   18.1390    0.0450 C   0  0  0  0  0  0  0  0  0  0  0  0
    4.1020   16.9410   -0.9090 C   0  0  2  0  0  0  0  0  0  0  0  0
    4.2000   17.3770   -2.3850 C   0  0  0  0  0  0  0  0  0  0  0  0
    5.6340   17.4260   -2.9180 C   0  0  0  0  0  0  0  0  0  0  0  0
    5.9520   16.2330   -3.7670 C   0  0  2  0  0  0  0  0  0  0  0  0
    6.9500   15.3600   -3.2230 O   0  0  0  0  0  0  0  0  0  0  0  0
    7.2910   16.0250   -4.4500 C   0  0  0  0  0  0  0  0  0  0  0  0
    8.3990   17.0220   -4.3150 C   0  0  0  0  0  0  0  0  0  0  0  0
    7.3560   15.1100   -5.6330 C   0  0  0  0  0  0  0  0  0  0  0  0
    2.8590   16.0840   -0.7000 C   0  0  1  0  0  0  0  0  0  0  0  0
    1.5640   16.9310   -0.5690 C   0  0  0  0  0  0  0  0  0  0  0  0
    0.4260   16.1130   -1.2310 C   0  0  0  0  0  0  0  0  0  0  0  0
    1.0220   14.6980   -1.4210 C   0  0  1  0  0  0  0  0  0  0  0  0
    0.8760   14.0110   -0.0280 C   0  0  0  0  0  0  0  0  0  0  0  0
    0.3930   13.8320   -2.5610 C   0  0  2  0  0  0  0  0  0  0  0  0
   -1.0970   13.4940   -2.3780 C   0  0  0  0  0  0  0  0  0  0  0  0
   -1.3780   12.2260   -1.6430 C   0  0  0  0  0  0  0  0  0  0  0  0
   -0.4840   11.2500   -1.3970 C   0  0  0  0  0  0  0  0  0  0  0  0
    0.9400   11.3250   -1.9630 C   0  0  1  0  0  0  0  0  0  0  0  0
    1.3220    9.9580   -2.5890 C   0  0  0  0  0  0  0  0  0  0  0  0
    1.1410    8.7980   -1.6140 C   0  0  0  0  0  0  0  0  0  0  0  0
   -0.3010    8.7200   -1.1190 C   0  0  2  0  0  0  0  0  0  0  0  0
   -1.1470    8.3700   -2.2180 O   0  0  0  0  0  0  0  0  0  0  0  0
   -0.8000   10.0450   -0.4770 C   0  0  0  0  0  0  0  0  0  0  0  0
   -0.0840   10.2680    0.8780 C   0  0  0  0  0  0  0  0  0  0  0  0
   -2.3080    9.8780   -0.1490 C   0  0  0  0  0  0  0  0  0  0  0  0
    1.2360   12.5460   -2.9370 C   0  0  1  0  0  0  0  0  0  0  0  0
    0.8430   12.1680   -4.3980 C   0  0  0  0  0  0  0  0  0  0  0  0
    2.7840   12.8280   -2.9520 C   0  0  0  0  0  0  0  0  0  0  0  0
    3.3260   13.7860   -1.8740 C   0  0  0  0  0  0  0  0  0  0  0  0
    2.4970   15.0720   -1.8160 C   0  0  2  0  0  0  0  0  0  0  0  0
    2.6420   15.7980   -3.1970 C   0  0  0  0  0  0  0  0  0  0  0  0
    4.0838   17.7800    1.0847 H   0  0  0  0  0  0  0  0  0  0  0  0
    4.9607   18.7682   -0.1323 H   0  0  0  0  0  0  0  0  0  0  0  0
    3.1648   18.7292   -0.1323 H   0  0  0  0  0  0  0  0  0  0  0  0
    5.0023   16.3526   -0.6782 H   0  0  0  0  0  0  0  0  0  0  0  0
    3.6264   16.6648   -2.9963 H   0  0  0  0  0  0  0  0  0  0  0  0
    3.7994   18.3997   -2.4455 H   0  0  0  0  0  0  0  0  0  0  0  0
    5.7585   18.3367   -3.5223 H   0  0  0  0  0  0  0  0  0  0  0  0
    6.3193   17.4263   -2.0575 H   0  0  0  0  0  0  0  0  0  0  0  0
    4.9186   16.1952   -4.1421 H   0  0  0  0  0  0  0  0  0  0  0  0
    8.6009   17.2037   -3.2491 H   0  0  0  0  0  0  0  0  0  0  0  0
    9.3060   16.6299   -4.7984 H   0  0  0  0  0  0  0  0  0  0  0  0
    8.1045   17.9652   -4.7984 H   0  0  0  0  0  0  0  0  0  0  0  0
    7.4300   14.0684   -5.2873 H   0  0  0  0  0  0  0  0  0  0  0  0
    6.4470   15.2310   -6.2405 H   0  0  0  0  0  0  0  0  0  0  0  0
    8.2388   15.3583   -6.2405 H   0  0  0  0  0  0  0  0  0  0  0  0
    3.1566   15.5473    0.2129 H   0  0  0  0  0  0  0  0  0  0  0  0
    1.3342   17.1101    0.4917 H   0  0  0  0  0  0  0  0  0  0  0  0
    1.6815   17.9102   -1.0561 H   0  0  0  0  0  0  0  0  0  0  0  0
   -0.4578   16.0775   -0.5770 H   0  0  0  0  0  0  0  0  0  0  0  0
    0.0920   16.5560   -2.1809 H   0  0  0  0  0  0  0  0  0  0  0  0
    1.0342   14.7553    0.7663 H   0  0  0  0  0  0  0  0  0  0  0  0
   -0.1331   13.5833    0.0660 H   0  0  0  0  0  0  0  0  0  0  0  0
    1.6240   13.2099    0.0660 H   0  0  0  0  0  0  0  0  0  0  0  0
    0.4405   14.5098   -3.4261 H   0  0  0  0  0  0  0  0  0  0  0  0
   -1.5670   14.3195   -1.8234 H   0  0  0  0  0  0  0  0  0  0  0  0
   -1.5038   13.3551   -3.3905 H   0  0  0  0  0  0  0  0  0  0  0  0
   -2.4022   12.0762   -1.2708 H   0  0  0  0  0  0  0  0  0  0  0  0
    1.5960   11.5394   -1.1064 H   0  0  0  0  0  0  0  0  0  0  0  0
    0.6850    9.7824   -3.4684 H   0  0  0  0  0  0  0  0  0  0  0  0
    2.3865   10.0015   -2.8630 H   0  0  0  0  0  0  0  0  0  0  0  0
    1.3983    7.8571   -2.1225 H   0  0  0  0  0  0  0  0  0  0  0  0
    1.8004    8.9610   -0.7488 H   0  0  0  0  0  0  0  0  0  0  0  0
   -0.3384    7.9549   -0.3296 H   0  0  0  0  0  0  0  0  0  0  0  0
   -0.8280    8.8500   -3.0010 H   0  0  0  0  0  0  0  0  0  0  0  0
   -0.7808   10.0510    1.7010 H   0  0  0  0  0  0  0  0  0  0  0  0
    0.7858    9.5982    0.9477 H   0  0  0  0  0  0  0  0  0  0  0  0
    0.2516   11.3132    0.9477 H   0  0  0  0  0  0  0  0  0  0  0  0
   -2.4464    9.8627    0.9422 H   0  0  0  0  0  0  0  0  0  0  0  0
   -2.8720   10.7192   -0.5784 H   0  0  0  0  0  0  0  0  0  0  0  0
   -2.6743    8.9338   -0.5784 H   0  0  0  0  0  0  0  0  0  0  0  0
    0.0503   11.4056   -4.3789 H   0  0  0  0  0  0  0  0  0  0  0  0
    0.4781   13.0632   -4.9228 H   0  0  0  0  0  0  0  0  0  0  0  0
    1.7233   11.7686   -4.9228 H   0  0  0  0  0  0  0  0  0  0  0  0
    3.2991   11.8638   -2.8297 H   0  0  0  0  0  0  0  0  0  0  0  0
    2.9750   13.3345   -3.9096 H   0  0  0  0  0  0  0  0  0  0  0  0
    3.2840   13.2865   -0.8949 H   0  0  0  0  0  0  0  0  0  0  0  0
    4.3634   14.0489   -2.1283 H   0  0  0  0  0  0  0  0  0  0  0  0
    2.8549   16.8642   -3.0302 H   0  0  0  0  0  0  0  0  0  0  0  0
    3.4672   15.3438   -3.7652 H   0  0  0  0  0  0  0  0  0  0  0  0
    1.7057   15.6956   -3.7652 H   0  0  0  0  0  0  0  0  0  0  0  0
  1  2  1  0
  2  3  1  0
  3  4  1  0
  4  5  1  0
  5  6  1  0
  6  7  1  0
  7  8  1  0
  7  9  1  0
  2 10  1  0
 10 11  1  0
 11 12  1  0
 12 13  1  0
 13 14  1  1
 13 15  1  0
 15 16  1  0
 16 17  1  0
 17 18  2  0
 18 19  1  0
 19 20  1  0
 20 21  1  0
 21 22  1  0
 22 23  1  0
 22 24  1  0
 24 25  1  0
 24 26  1  0
 19 27  1  0
 27 28  1  6
 27 29  1  0
 29 30  1  0
 30 31  1  0
 31 32  1  6
  7  5  1  0
 31 10  1  0
 31 13  1  0
 27 15  1  0
 24 18  1  0
  1 33  1  0
  1 34  1  0
  1 35  1  0
  2 36  1  1
  3 37  1  0
  3 38  1  0
  4 39  1  0
  4 40  1  0
  5 41  1  6
  8 42  1  0
  8 43  1  0
  8 44  1  0
  9 45  1  0
  9 46  1  0
  9 47  1  0
 10 48  1  1
 11 49  1  0
 11 50  1  0
 12 51  1  0
 12 52  1  0
 14 53  1  0
 14 54  1  0
 14 55  1  0
 15 56  1  6
 16 57  1  0
 16 58  1  0
 17 59  1  0
 19 60  1  1
 20 61  1  0
 20 62  1  0
 21 63  1  0
 21 64  1  0
 22 65  1  1
 23 66  1  0
 25 67  1  0
 25 68  1  0
 25 69  1  0
 26 70  1  0
 26 71  1  0
 26 72  1  0
 28 73  1  0
 28 74  1  0
 28 75  1  0
 29 76  1  0
 29 77  1  0
 30 78  1  0
 30 79  1  0
 32 80  1  0
 32 81  1  0
 32 82  1  0
M  END
>  <meeko>  (5) 
{"is_sidechain": [false], "intermolecular_energy": 2.731, "internal_energy": -0.839}

$$$$
EPH_relaxed_0001_pdb2pqr_Repair_148_r2_0001_out
     RDKit          3D

 82 86  0  0  0  0  0  0  0  0999 V2000
   -2.5090    7.5310   -3.0600 C   0  0  0  0  0  0  0  0  0  0  0  0
   -2.8520    7.8310   -1.5980 C   0  0  2  0  0  0  0  0  0  0  0  0
   -4.3720    7.7970   -1.3390 C   0  0  0  0  0  0  0  0  0  0  0  0
   -5.0850    6.6240   -2.0170 C   0  0  0  0  0  0  0  0  0  0  0  0
   -6.3100    7.0730   -2.7560 C   0  0  2  0  0  0  0  0  0  0  0  0
   -6.8740    8.3040   -2.2870 O   0  0  0  0  0  0  0  0  0  0  0  0
   -7.6900    7.1320   -2.1280 C   0  0  0  0  0  0  0  0  0  0  0  0
   -7.9170    6.7360   -0.7030 C   0  0  0  0  0  0  0  0  0  0  0  0
   -8.8870    7.1040   -3.0280 C   0  0  0  0  0  0  0  0  0  0  0  0
   -2.2860    9.1900   -1.2010 C   0  0  1  0  0  0  0  0  0  0  0  0
   -2.8320    9.6880    0.1640 C   0  0  0  0  0  0  0  0  0  0  0  0
   -1.6790   10.4630    0.8510 C   0  0  0  0  0  0  0  0  0  0  0  0
   -0.6290   10.6700   -0.2650 C   0  0  1  0  0  0  0  0  0  0  0  0
   -1.1420   11.9020   -1.0750 C   0  0  0  0  0  0  0  0  0  0  0  0
    0.8500   10.8640    0.2040 C   0  0  2  0  0  0  0  0  0  0  0  0
    1.1020   12.1090    1.0710 C   0  0  0  0  0  0  0  0  0  0  0  0
    1.4740   13.3450    0.3200 C   0  0  0  0  0  0  0  0  0  0  0  0
    1.8790   13.3880   -0.9630 C   0  0  0  0  0  0  0  0  0  0  0  0
    2.0900   12.0980   -1.7660 C   0  0  1  0  0  0  0  0  0  0  0  0
    3.4420   12.1740   -2.5230 C   0  0  0  0  0  0  0  0  0  0  0  0
    3.5580   13.4250   -3.3880 C   0  0  0  0  0  0  0  0  0  0  0  0
    3.4010   14.6880   -2.5440 C   0  0  2  0  0  0  0  0  0  0  0  0
    4.5180   14.7900   -1.6550 O   0  0  0  0  0  0  0  0  0  0  0  0
    2.0790   14.7190   -1.7280 C   0  0  0  0  0  0  0  0  0  0  0  0
    0.8790   14.9120   -2.6880 C   0  0  0  0  0  0  0  0  0  0  0  0
    2.1110   15.9740   -0.8150 C   0  0  0  0  0  0  0  0  0  0  0  0
    1.9200   10.7410   -0.9560 C   0  0  1  0  0  0  0  0  0  0  0  0
    3.2690   10.3530   -0.2770 C   0  0  0  0  0  0  0  0  0  0  0  0
    1.5790    9.5800   -1.9630 C   0  0  0  0  0  0  0  0  0  0  0  0
    0.0910    9.3620   -2.2950 C   0  0  0  0  0  0  0  0  0  0  0  0
   -0.7520    9.2950   -1.0170 C   0  0  2  0  0  0  0  0  0  0  0  0
   -0.2730    8.0520   -0.1930 C   0  0  0  0  0  0  0  0  0  0  0  0
   -1.6816    6.8073   -3.1014 H   0  0  0  0  0  0  0  0  0  0  0  0
   -3.3908    7.1090   -3.5644 H   0  0  0  0  0  0  0  0  0  0  0  0
   -2.2082    8.4611   -3.5644 H   0  0  0  0  0  0  0  0  0  0  0  0
   -2.3950    7.0427   -0.9818 H   0  0  0  0  0  0  0  0  0  0  0  0
   -4.5380    7.7242   -0.2540 H   0  0  0  0  0  0  0  0  0  0  0  0
   -4.7920    8.7194   -1.7665 H   0  0  0  0  0  0  0  0  0  0  0  0
   -4.3933    6.1493   -2.7284 H   0  0  0  0  0  0  0  0  0  0  0  0
   -5.3959    5.9139   -1.2366 H   0  0  0  0  0  0  0  0  0  0  0  0
   -5.9425    6.6206   -3.6889 H   0  0  0  0  0  0  0  0  0  0  0  0
   -7.4814    7.4958   -0.0375 H   0  0  0  0  0  0  0  0  0  0  0  0
   -8.9974    6.6572   -0.5120 H   0  0  0  0  0  0  0  0  0  0  0  0
   -7.4390    5.7639   -0.5120 H   0  0  0  0  0  0  0  0  0  0  0  0
   -9.8030    7.0826   -2.4193 H   0  0  0  0  0  0  0  0  0  0  0  0
   -8.8895    8.0023   -3.6628 H   0  0  0  0  0  0  0  0  0  0  0  0
   -8.8475    6.2065   -3.6628 H   0  0  0  0  0  0  0  0  0  0  0  0
   -2.6019    9.7832   -2.0718 H   0  0  0  0  0  0  0  0  0  0  0  0
   -3.6945   10.3525    0.0073 H   0  0  0  0  0  0  0  0  0  0  0  0
   -3.1673    8.8453    0.7864 H   0  0  0  0  0  0  0  0  0  0  0  0
   -2.0354   11.4309    1.2333 H   0  0  0  0  0  0  0  0  0  0  0  0
   -1.2681    9.9201    1.7149 H   0  0  0  0  0  0  0  0  0  0  0  0
   -1.4693   12.6881   -0.3787 H   0  0  0  0  0  0  0  0  0  0  0  0
   -0.3299   12.2882   -1.7085 H   0  0  0  0  0  0  0  0  0  0  0  0
   -1.9882   11.5977   -1.7085 H   0  0  0  0  0  0  0  0  0  0  0  0
    1.0005   10.0013    0.8697 H   0  0  0  0  0  0  0  0  0  0  0  0
    0.1835   12.3196    1.6384 H   0  0  0  0  0  0  0  0  0  0  0  0
    1.9668   11.8673    1.7063 H   0  0  0  0  0  0  0  0  0  0  0  0
    1.4118   14.3008    0.8608 H   0  0  0  0  0  0  0  0  0  0  0  0
    1.2606   12.0502   -2.4870 H   0  0  0  0  0  0  0  0  0  0  0  0
    4.2589   12.1775   -1.7864 H   0  0  0  0  0  0  0  0  0  0  0  0
    3.5015   11.3006   -3.1890 H   0  0  0  0  0  0  0  0  0  0  0  0
    4.5450   13.4368   -3.8736 H   0  0  0  0  0  0  0  0  0  0  0  0
    2.7583   13.4054   -4.1431 H   0  0  0  0  0  0  0  0  0  0  0  0
    3.3632   15.5436   -3.2343 H   0  0  0  0  0  0  0  0  0  0  0  0
    5.0910   14.0210   -1.8140 H   0  0  0  0  0  0  0  0  0  0  0  0
   -0.0397   15.0598   -2.1014 H   0  0  0  0  0  0  0  0  0  0  0  0
    1.0549   15.7934   -3.3222 H   0  0  0  0  0  0  0  0  0  0  0  0
    0.7696   14.0199   -3.3222 H   0  0  0  0  0  0  0  0  0  0  0  0
    2.1030   15.6607    0.2394 H   0  0  0  0  0  0  0  0  0  0  0  0
    3.0242   16.5524   -1.0187 H   0  0  0  0  0  0  0  0  0  0  0  0
    1.2285   16.5982   -1.0187 H   0  0  0  0  0  0  0  0  0  0  0  0
    3.1522   10.3866    0.8163 H   0  0  0  0  0  0  0  0  0  0  0  0
    3.5550    9.3362   -0.5841 H   0  0  0  0  0  0  0  0  0  0  0  0
    4.0515   11.0625   -0.5841 H   0  0  0  0  0  0  0  0  0  0  0  0
    2.1024    9.7937   -2.9066 H   0  0  0  0  0  0  0  0  0  0  0  0
    1.8986    8.6573   -1.4566 H   0  0  0  0  0  0  0  0  0  0  0  0
   -0.2648   10.1963   -2.9174 H   0  0  0  0  0  0  0  0  0  0  0  0
   -0.0122    8.4085   -2.8336 H   0  0  0  0  0  0  0  0  0  0  0  0
   -0.3571    8.2701    0.8819 H   0  0  0  0  0  0  0  0  0  0  0  0
   -0.9009    7.1835   -0.4411 H   0  0  0  0  0  0  0  0  0  0  0  0
    0.7753    7.8294   -0.4411 H   0  0  0  0  0  0  0  0  0  0  0  0
  1  2  1  0
  2  3  1  0
  3  4  1  0
  4  5  1  0
  5  6  1  0
  6  7  1  0
  7  8  1  0
  7  9  1  0
  2 10  1  0
 10 11  1  0
 11 12  1  0
 12 13  1  0
 13 14  1  6
 13 15  1  0
 15 16  1  0
 16 17  1  0
 17 18  2  0
 18 19  1  0
 19 20  1  0
 20 21  1  0
 21 22  1  0
 22 23  1  0
 22 24  1  0
 24 25  1  0
 24 26  1  0
 19 27  1  0
 27 28  1  1
 27 29  1  0
 29 30  1  0
 30 31  1  0
 31 32  1  1
  7  5  1  0
 31 10  1  0
 31 13  1  0
 27 15  1  0
 24 18  1  0
  1 33  1  0
  1 34  1  0
  1 35  1  0
  2 36  1  1
  3 37  1  0
  3 38  1  0
  4 39  1  0
  4 40  1  0
  5 41  1  6
  8 42  1  0
  8 43  1  0
  8 44  1  0
  9 45  1  0
  9 46  1  0
  9 47  1  0
 10 48  1  6
 11 49  1  0
 11 50  1  0
 12 51  1  0
 12 52  1  0
 14 53  1  0
 14 54  1  0
 14 55  1  0
 15 56  1  1
 16 57  1  0
 16 58  1  0
 17 59  1  0
 19 60  1  6
 20 61  1  0
 20 62  1  0
 21 63  1  0
 21 64  1  0
 22 65  1  6
 23 66  1  0
 25 67  1  0
 25 68  1  0
 25 69  1  0
 26 70  1  0
 26 71  1  0
 26 72  1  0
 28 73  1  0
 28 74  1  0
 28 75  1  0
 29 76  1  0
 29 77  1  0
 30 78  1  0
 30 79  1  0
 32 80  1  0
 32 81  1  0
 32 82  1  0
M  END
>  <meeko>  (6) 
{"is_sidechain": [false], "intermolecular_energy": 2.731, "internal_energy": -0.839}

$$$$
EPH_relaxed_0001_pdb2pqr_Repair_148_r2_0001_out
     RDKit          3D

 82 86  0  0  0  0  0  0  0  0999 V2000
    3.6800   17.9330   -1.4090 C   0  0  0  0  0  0  0  0  0  0  0  0
    2.6500   17.4600   -2.4390 C   0  0  2  0  0  0  0  0  0  0  0  0
    1.2290   17.9610   -2.1120 C   0  0  0  0  0  0  0  0  0  0  0  0
    1.1550   18.8200   -0.8470 C   0  0  0  0  0  0  0  0  0  0  0  0
   -0.0820   19.6650   -0.8220 C   0  0  2  0  0  0  0  0  0  0  0  0
   -0.4200   20.1950    0.4660 O   0  0  0  0  0  0  0  0  0  0  0  0
   -1.3560   19.2640   -0.1020 C   0  0  0  0  0  0  0  0  0  0  0  0
   -1.4560   17.9700    0.6440 C   0  0  0  0  0  0  0  0  0  0  0  0
   -2.6470   19.8900   -0.5270 C   0  0  0  0  0  0  0  0  0  0  0  0
    2.6600   15.9380   -2.5220 C   0  0  1  0  0  0  0  0  0  0  0  0
    4.0900   15.3580   -2.6820 C   0  0  0  0  0  0  0  0  0  0  0  0
    4.1180   14.0160   -1.9060 C   0  0  0  0  0  0  0  0  0  0  0  0
    2.6320   13.7060   -1.6090 C   0  0  1  0  0  0  0  0  0  0  0  0
    2.0820   13.0770   -2.9270 C   0  0  0  0  0  0  0  0  0  0  0  0
    2.3510   12.7930   -0.3720 C   0  0  2  0  0  0  0  0  0  0  0  0
    2.9280   11.3690   -0.4670 C   0  0  0  0  0  0  0  0  0  0  0  0
    2.0180   10.3520   -1.0720 C   0  0  0  0  0  0  0  0  0  0  0  0
    0.6940   10.5000   -1.2600 C   0  0  0  0  0  0  0  0  0  0  0  0
   -0.0380   11.7510   -0.7570 C   0  0  1  0  0  0  0  0  0  0  0  0
   -1.3380   11.3300   -0.0230 C   0  0  0  0  0  0  0  0  0  0  0  0
   -2.2310   10.4370   -0.8800 C   0  0  0  0  0  0  0  0  0  0  0  0
   -1.4870    9.1760   -1.3120 C   0  0  2  0  0  0  0  0  0  0  0  0
   -1.2240    8.3770   -0.1550 O   0  0  0  0  0  0  0  0  0  0  0  0
   -0.1540    9.4750   -2.0540 C   0  0  0  0  0  0  0  0  0  0  0  0
   -0.4580   10.0730   -3.4500 C   0  0  0  0  0  0  0  0  0  0  0  0
    0.5650    8.1230   -2.3080 C   0  0  0  0  0  0  0  0  0  0  0  0
    0.8370   12.7730    0.0890 C   0  0  1  0  0  0  0  0  0  0  0  0
    0.8340   12.3580    1.5920 C   0  0  0  0  0  0  0  0  0  0  0  0
    0.1720   14.1990    0.0200 C   0  0  0  0  0  0  0  0  0  0  0  0
    0.5810   15.1000   -1.1610 C   0  0  0  0  0  0  0  0  0  0  0  0
    2.1050   15.1560   -1.3050 C   0  0  2  0  0  0  0  0  0  0  0  0
    2.6850   15.8050   -0.0020 C   0  0  0  0  0  0  0  0  0  0  0  0
    3.2928   17.7552   -0.3949 H   0  0  0  0  0  0  0  0  0  0  0  0
    4.6183   17.3756   -1.5462 H   0  0  0  0  0  0  0  0  0  0  0  0
    3.8687   19.0080   -1.5462 H   0  0  0  0  0  0  0  0  0  0  0  0
    2.9342   17.8874   -3.4119 H   0  0  0  0  0  0  0  0  0  0  0  0
    0.8685   18.5609   -2.9606 H   0  0  0  0  0  0  0  0  0  0  0  0
    0.6078   17.0711   -1.9329 H   0  0  0  0  0  0  0  0  0  0  0  0
    1.1533   18.1596    0.0327 H   0  0  0  0  0  0  0  0  0  0  0  0
    2.0277   19.4895   -0.8359 H   0  0  0  0  0  0  0  0  0  0  0  0
    0.1071   20.0120   -1.8486 H   0  0  0  0  0  0  0  0  0  0  0  0
   -1.4407   18.1683    1.7259 H   0  0  0  0  0  0  0  0  0  0  0  0
   -2.3959   17.4646    0.3772 H   0  0  0  0  0  0  0  0  0  0  0  0
   -0.6049   17.3262    0.3772 H   0  0  0  0  0  0  0  0  0  0  0  0
   -3.2284   20.1719    0.3632 H   0  0  0  0  0  0  0  0  0  0  0  0
   -2.4390   20.7873   -1.1283 H   0  0  0  0  0  0  0  0  0  0  0  0
   -3.2227   19.1710   -1.1283 H   0  0  0  0  0  0  0  0  0  0  0  0
    2.0022   15.7964   -3.3922 H   0  0  0  0  0  0  0  0  0  0  0  0
    4.3119   15.1853   -3.7455 H   0  0  0  0  0  0  0  0  0  0  0  0
    4.8452   16.0559   -2.2913 H   0  0  0  0  0  0  0  0  0  0  0  0
    4.5651   13.2211   -2.5210 H   0  0  0  0  0  0  0  0  0  0  0  0
    4.7228   14.0768   -0.9892 H   0  0  0  0  0  0  0  0  0  0  0  0
    1.3762   12.2698   -2.6814 H   0  0  0  0  0  0  0  0  0  0  0  0
    1.5649   13.8501   -3.5143 H   0  0  0  0  0  0  0  0  0  0  0  0
    2.9172   12.6677   -3.5143 H   0  0  0  0  0  0  0  0  0  0  0  0
    2.9207   13.2941    0.4245 H   0  0  0  0  0  0  0  0  0  0  0  0
    3.8424   11.4126   -1.0768 H   0  0  0  0  0  0  0  0  0  0  0  0
    3.1045   11.0422    0.5684 H   0  0  0  0  0  0  0  0  0  0  0  0
    2.4683    9.4005   -1.3913 H   0  0  0  0  0  0  0  0  0  0  0  0
   -0.2887   12.3378   -1.6530 H   0  0  0  0  0  0  0  0  0  0  0  0
   -1.0652   10.7825    0.8912 H   0  0  0  0  0  0  0  0  0  0  0  0
   -1.9031   12.2454    0.2067 H   0  0  0  0  0  0  0  0  0  0  0  0
   -3.1185   10.1496   -0.2971 H   0  0  0  0  0  0  0  0  0  0  0  0
   -2.5268   10.9961   -1.7800 H   0  0  0  0  0  0  0  0  0  0  0  0
   -2.1307    8.6416   -2.0262 H   0  0  0  0  0  0  0  0  0  0  0  0
   -2.0420    8.3410    0.3700 H   0  0  0  0  0  0  0  0  0  0  0  0
   -0.9536   11.0478   -3.3313 H   0  0  0  0  0  0  0  0  0  0  0  0
    0.4825   10.2049   -4.0051 H   0  0  0  0  0  0  0  0  0  0  0  0
   -1.1188    9.3909   -4.0051 H   0  0  0  0  0  0  0  0  0  0  0  0
    0.8145    7.6538   -1.3449 H   0  0  0  0  0  0  0  0  0  0  0  0
   -0.0980    7.4568   -2.8796 H   0  0  0  0  0  0  0  0  0  0  0  0
    1.4880    8.3003   -2.8796 H   0  0  0  0  0  0  0  0  0  0  0  0
    0.8405   13.2601    2.2215 H   0  0  0  0  0  0  0  0  0  0  0  0
   -0.0684   11.7671    1.8074 H   0  0  0  0  0  0  0  0  0  0  0  0
    1.7278   11.7541    1.8074 H   0  0  0  0  0  0  0  0  0  0  0  0
   -0.9174   14.0559   -0.0323 H   0  0  0  0  0  0  0  0  0  0  0  0
    0.5253   14.7251    0.9191 H   0  0  0  0  0  0  0  0  0  0  0  0
    0.1464   14.6977   -2.0880 H   0  0  0  0  0  0  0  0  0  0  0  0
    0.2087   16.1176   -0.9715 H   0  0  0  0  0  0  0  0  0  0  0  0
    2.2461   15.3138    0.8790 H   0  0  0  0  0  0  0  0  0  0  0  0
    3.7777   15.6799    0.0149 H   0  0  0  0  0  0  0  0  0  0  0  0
    2.4384   16.8769    0.0149 H   0  0  0  0  0  0  0  0  0  0  0  0
  1  2  1  0
  2  3  1  0
  3  4  1  0
  4  5  1  0
  5  6  1  0
  6  7  1  0
  7  8  1  0
  7  9  1  0
  2 10  1  0
 10 11  1  0
 11 12  1  0
 12 13  1  0
 13 14  1  6
 13 15  1  0
 15 16  1  0
 16 17  1  0
 17 18  2  0
 18 19  1  0
 19 20  1  0
 20 21  1  0
 21 22  1  0
 22 23  1  0
 22 24  1  0
 24 25  1  0
 24 26  1  0
 19 27  1  0
 27 28  1  1
 27 29  1  0
 29 30  1  0
 30 31  1  0
 31 32  1  1
  7  5  1  0
 31 10  1  0
 31 13  1  0
 27 15  1  0
 24 18  1  0
  1 33  1  0
  1 34  1  0
  1 35  1  0
  2 36  1  6
  3 37  1  0
  3 38  1  0
  4 39  1  0
  4 40  1  0
  5 41  1  6
  8 42  1  0
  8 43  1  0
  8 44  1  0
  9 45  1  0
  9 46  1  0
  9 47  1  0
 10 48  1  6
 11 49  1  0
 11 50  1  0
 12 51  1  0
 12 52  1  0
 14 53  1  0
 14 54  1  0
 14 55  1  0
 15 56  1  1
 16 57  1  0
 16 58  1  0
 17 59  1  0
 19 60  1  6
 20 61  1  0
 20 62  1  0
 21 63  1  0
 21 64  1  0
 22 65  1  6
 23 66  1  0
 25 67  1  0
 25 68  1  0
 25 69  1  0
 26 70  1  0
 26 71  1  0
 26 72  1  0
 28 73  1  0
 28 74  1  0
 28 75  1  0
 29 76  1  0
 29 77  1  0
 30 78  1  0
 30 79  1  0
 32 80  1  0
 32 81  1  0
 32 82  1  0
M  END
>  <meeko>  (7) 
{"is_sidechain": [false], "intermolecular_energy": 2.731, "internal_energy": -0.839}

$$$$
EPH_relaxed_0001_pdb2pqr_Repair_148_r2_0001_out
     RDKit          3D

 82 86  0  0  0  0  0  0  0  0999 V2000
    4.3680   17.6000   -2.6720 C   0  0  0  0  0  0  0  0  0  0  0  0
    2.9840   17.1240   -2.2210 C   0  0  2  0  0  0  0  0  0  0  0  0
    2.6720   17.5400   -0.7700 C   0  0  0  0  0  0  0  0  0  0  0  0
    3.8710   18.1380   -0.0290 C   0  0  0  0  0  0  0  0  0  0  0  0
    3.4710   18.7260    1.2900 C   0  0  2  0  0  0  0  0  0  0  0  0
    3.7670   20.1210    1.4370 O   0  0  0  0  0  0  0  0  0  0  0  0
    4.4670   19.2280    2.3190 C   0  0  0  0  0  0  0  0  0  0  0  0
    5.9410   19.1630    2.0740 C   0  0  0  0  0  0  0  0  0  0  0  0
    4.0310   19.3270    3.7470 C   0  0  0  0  0  0  0  0  0  0  0  0
    2.8840   15.6100   -2.3620 C   0  0  1  0  0  0  0  0  0  0  0  0
    4.2650   14.9370   -2.5850 C   0  0  0  0  0  0  0  0  0  0  0  0
    4.2170   13.5670   -1.8620 C   0  0  0  0  0  0  0  0  0  0  0  0
    2.7210   13.3500   -1.5350 C   0  0  1  0  0  0  0  0  0  0  0  0
    2.0940   12.8150   -2.8600 C   0  0  0  0  0  0  0  0  0  0  0  0
    2.4070   12.4100   -0.3260 C   0  0  2  0  0  0  0  0  0  0  0  0
    2.8790   10.9550   -0.4920 C   0  0  0  0  0  0  0  0  0  0  0  0
    1.8840   10.0280   -1.1100 C   0  0  0  0  0  0  0  0  0  0  0  0
    0.5690   10.2760   -1.2550 C   0  0  0  0  0  0  0  0  0  0  0  0
   -0.0590   11.5540   -0.6850 C   0  0  1  0  0  0  0  0  0  0  0  0
   -1.3670   11.1960    0.0690 C   0  0  0  0  0  0  0  0  0  0  0  0
   -2.3420   10.4020   -0.7960 C   0  0  0  0  0  0  0  0  0  0  0  0
   -1.7000    9.1110   -1.2960 C   0  0  2  0  0  0  0  0  0  0  0  0
   -1.4650    8.2490   -0.1780 O   0  0  0  0  0  0  0  0  0  0  0  0
   -0.3680    9.3450   -2.0630 C   0  0  0  0  0  0  0  0  0  0  0  0
   -0.6640   10.0180   -3.4260 C   0  0  0  0  0  0  0  0  0  0  0  0
    0.2460    7.9570   -2.3890 C   0  0  0  0  0  0  0  0  0  0  0  0
    0.9070   12.4770    0.1750 C   0  0  1  0  0  0  0  0  0  0  0  0
    0.9130   12.0040    1.6610 C   0  0  0  0  0  0  0  0  0  0  0  0
    0.3440   13.9470    0.1800 C   0  0  0  0  0  0  0  0  0  0  0  0
    0.7860   14.8650   -0.9770 C   0  0  0  0  0  0  0  0  0  0  0  0
    2.3060   14.8200   -1.1610 C   0  0  2  0  0  0  0  0  0  0  0  0
    2.9630   15.3740    0.1480 C   0  0  0  0  0  0  0  0  0  0  0  0
    4.9882   17.8133   -1.7889 H   0  0  0  0  0  0  0  0  0  0  0  0
    4.8471   16.8150   -3.2755 H   0  0  0  0  0  0  0  0  0  0  0  0
    4.2629   18.5136   -3.2755 H   0  0  0  0  0  0  0  0  0  0  0  0
    2.2394   17.6076   -2.8704 H   0  0  0  0  0  0  0  0  0  0  0  0
    1.8669   18.2893   -0.7892 H   0  0  0  0  0  0  0  0  0  0  0  0
    2.3832   16.6267   -0.2292 H   0  0  0  0  0  0  0  0  0  0  0  0
    4.6140   17.3456    0.1447 H   0  0  0  0  0  0  0  0  0  0  0  0
    4.2908   18.9431   -0.6499 H   0  0  0  0  0  0  0  0  0  0  0  0
    2.6169   18.0369    1.3653 H   0  0  0  0  0  0  0  0  0  0  0  0
    6.4721   19.1396    3.0370 H   0  0  0  0  0  0  0  0  0  0  0  0
    6.1779   18.2535    1.5024 H   0  0  0  0  0  0  0  0  0  0  0  0
    6.2571   20.0481    1.5024 H   0  0  0  0  0  0  0  0  0  0  0  0
    4.8893   19.1321    4.4068 H   0  0  0  0  0  0  0  0  0  0  0  0
    3.6405   20.3367    3.9420 H   0  0  0  0  0  0  0  0  0  0  0  0
    3.2427   18.5850    3.9420 H   0  0  0  0  0  0  0  0  0  0  0  0
    2.1957   15.5507   -3.2180 H   0  0  0  0  0  0  0  0  0  0  0  0
    4.4463   14.7917   -3.6602 H   0  0  0  0  0  0  0  0  0  0  0  0
    5.0781   15.5637   -2.1899 H   0  0  0  0  0  0  0  0  0  0  0  0
    4.5906   12.7679   -2.5192 H   0  0  0  0  0  0  0  0  0  0  0  0
    4.8476   13.5488   -0.9609 H   0  0  0  0  0  0  0  0  0  0  0  0
    1.2768   12.1177   -2.6235 H   0  0  0  0  0  0  0  0  0  0  0  0
    1.6986   13.6583   -3.4452 H   0  0  0  0  0  0  0  0  0  0  0  0
    2.8646   12.2919   -3.4452 H   0  0  0  0  0  0  0  0  0  0  0  0
    3.0299   12.8376    0.4735 H   0  0  0  0  0  0  0  0  0  0  0  0
    3.7784   10.9596   -1.1253 H   0  0  0  0  0  0  0  0  0  0  0  0
    3.0581   10.5753    0.5247 H   0  0  0  0  0  0  0  0  0  0  0  0
    2.2575    9.0609   -1.4777 H   0  0  0  0  0  0  0  0  0  0  0  0
   -0.2894   12.1921   -1.5509 H   0  0  0  0  0  0  0  0  0  0  0  0
   -1.1108   10.5951    0.9540 H   0  0  0  0  0  0  0  0  0  0  0  0
   -1.8600   12.1387    0.3489 H   0  0  0  0  0  0  0  0  0  0  0  0
   -3.2325   10.1539   -0.1998 H   0  0  0  0  0  0  0  0  0  0  0  0
   -2.6203   11.0156   -1.6655 H   0  0  0  0  0  0  0  0  0  0  0  0
   -2.3981    8.6526   -2.0119 H   0  0  0  0  0  0  0  0  0  0  0  0
   -1.9360    7.4150   -0.3460 H   0  0  0  0  0  0  0  0  0  0  0  0
   -1.1016   11.0129   -3.2564 H   0  0  0  0  0  0  0  0  0  0  0  0
    0.2718   10.1212   -3.9949 H   0  0  0  0  0  0  0  0  0  0  0  0
   -1.3725    9.3980   -3.9949 H   0  0  0  0  0  0  0  0  0  0  0  0
    0.4791    7.4300   -1.4520 H   0  0  0  0  0  0  0  0  0  0  0  0
   -0.4744    7.3654   -2.9730 H   0  0  0  0  0  0  0  0  0  0  0  0
    1.1683    8.0921   -2.9730 H   0  0  0  0  0  0  0  0  0  0  0  0
    0.9019   12.8809    2.3250 H   0  0  0  0  0  0  0  0  0  0  0  0
    0.0226   11.3873    1.8531 H   0  0  0  0  0  0  0  0  0  0  0  0
    1.8188   11.4101    1.8531 H   0  0  0  0  0  0  0  0  0  0  0  0
   -0.7538   13.8829    0.1531 H   0  0  0  0  0  0  0  0  0  0  0  0
    0.7568   14.4100    1.0884 H   0  0  0  0  0  0  0  0  0  0  0  0
    0.3008   14.5320   -1.9063 H   0  0  0  0  0  0  0  0  0  0  0  0
    0.4915   15.8976   -0.7382 H   0  0  0  0  0  0  0  0  0  0  0  0
    2.4541   14.9449    1.0237 H   0  0  0  0  0  0  0  0  0  0  0  0
    4.0272   15.0965    0.1699 H   0  0  0  0  0  0  0  0  0  0  0  0
    2.8692   16.4698    0.1699 H   0  0  0  0  0  0  0  0  0  0  0  0
  1  2  1  0
  2  3  1  0
  3  4  1  0
  4  5  1  0
  5  6  1  0
  6  7  1  0
  7  8  1  0
  7  9  1  0
  2 10  1  0
 10 11  1  0
 11 12  1  0
 12 13  1  0
 13 14  1  6
 13 15  1  0
 15 16  1  0
 16 17  1  0
 17 18  2  0
 18 19  1  0
 19 20  1  0
 20 21  1  0
 21 22  1  0
 22 23  1  0
 22 24  1  0
 24 25  1  0
 24 26  1  0
 19 27  1  0
 27 28  1  1
 27 29  1  0
 29 30  1  0
 30 31  1  0
 31 32  1  1
  7  5  1  0
 31 10  1  0
 31 13  1  0
 27 15  1  0
 24 18  1  0
  1 33  1  0
  1 34  1  0
  1 35  1  0
  2 36  1  6
  3 37  1  0
  3 38  1  0
  4 39  1  0
  4 40  1  0
  5 41  1  1
  8 42  1  0
  8 43  1  0
  8 44  1  0
  9 45  1  0
  9 46  1  0
  9 47  1  0
 10 48  1  6
 11 49  1  0
 11 50  1  0
 12 51  1  0
 12 52  1  0
 14 53  1  0
 14 54  1  0
 14 55  1  0
 15 56  1  1
 16 57  1  0
 16 58  1  0
 17 59  1  0
 19 60  1  6
 20 61  1  0
 20 62  1  0
 21 63  1  0
 21 64  1  0
 22 65  1  6
 23 66  1  0
 25 67  1  0
 25 68  1  0
 25 69  1  0
 26 70  1  0
 26 71  1  0
 26 72  1  0
 28 73  1  0
 28 74  1  0
 28 75  1  0
 29 76  1  0
 29 77  1  0
 30 78  1  0
 30 79  1  0
 32 80  1  0
 32 81  1  0
 32 82  1  0
M  END
>  <meeko>  (8) 
{"is_sidechain": [false], "intermolecular_energy": 2.731, "internal_energy": -0.839}

$$$$
EPH_relaxed_0001_pdb2pqr_Repair_148_r2_0001_out
     RDKit          3D

 82 86  0  0  0  0  0  0  0  0999 V2000
    0.1700   10.3070   -3.5170 C   0  0  0  0  0  0  0  0  0  0  0  0
    1.1960   10.1470   -2.3910 C   0  0  2  0  0  0  0  0  0  0  0  0
    0.9180    8.9030   -1.5240 C   0  0  0  0  0  0  0  0  0  0  0  0
    0.1370    9.2080   -0.2430 C   0  0  0  0  0  0  0  0  0  0  0  0
   -1.2870    8.7510   -0.3390 C   0  0  2  0  0  0  0  0  0  0  0  0
   -1.8480    8.8140   -1.6570 O   0  0  0  0  0  0  0  0  0  0  0  0
   -2.4410    9.6770   -0.6730 C   0  0  0  0  0  0  0  0  0  0  0  0
   -2.2230   11.1350   -0.9310 C   0  0  0  0  0  0  0  0  0  0  0  0
   -3.8250    9.2700   -0.2700 C   0  0  0  0  0  0  0  0  0  0  0  0
    1.2100   11.3970   -1.5200 C   0  0  1  0  0  0  0  0  0  0  0  0
    2.1000   11.2360   -0.2590 C   0  0  0  0  0  0  0  0  0  0  0  0
    2.7430   12.6200    0.0150 C   0  0  0  0  0  0  0  0  0  0  0  0
    1.9530   13.6010   -0.8830 C   0  0  1  0  0  0  0  0  0  0  0  0
    0.6460   13.9100   -0.0880 C   0  0  0  0  0  0  0  0  0  0  0  0
    2.7000   14.9110   -1.2990 C   0  0  2  0  0  0  0  0  0  0  0  0
    3.0890   15.8370   -0.1340 C   0  0  0  0  0  0  0  0  0  0  0  0
    2.0710   16.8670    0.2300 C   0  0  0  0  0  0  0  0  0  0  0  0
    1.0190   17.2290   -0.5280 C   0  0  0  0  0  0  0  0  0  0  0  0
    0.8270   16.6510   -1.9360 C   0  0  1  0  0  0  0  0  0  0  0  0
    0.4870   17.7980   -2.9240 C   0  0  0  0  0  0  0  0  0  0  0  0
   -0.7070   18.6290   -2.4670 C   0  0  0  0  0  0  0  0  0  0  0  0
   -0.4550   19.2340   -1.0880 C   0  0  2  0  0  0  0  0  0  0  0  0
    0.6010   20.1940   -1.1930 O   0  0  0  0  0  0  0  0  0  0  0  0
   -0.0930   18.1740   -0.0110 C   0  0  0  0  0  0  0  0  0  0  0  0
   -1.3420   17.3200    0.3190 C   0  0  0  0  0  0  0  0  0  0  0  0
    0.2750   18.9280    1.2960 C   0  0  0  0  0  0  0  0  0  0  0  0
    1.9970   15.7150   -2.4660 C   0  0  1  0  0  0  0  0  0  0  0  0
    3.1050   16.5790   -3.1420 C   0  0  0  0  0  0  0  0  0  0  0  0
    1.4280   14.7670   -3.5870 C   0  0  0  0  0  0  0  0  0  0  0  0
    0.8110   13.4340   -3.1230 C   0  0  0  0  0  0  0  0  0  0  0  0
    1.7480   12.7030   -2.1570 C   0  0  2  0  0  0  0  0  0  0  0  0
    3.0640   12.3590   -2.9360 C   0  0  0  0  0  0  0  0  0  0  0  0
   -0.8289   10.4628   -3.0835 H   0  0  0  0  0  0  0  0  0  0  0  0
    0.4394   11.1740   -4.1381 H   0  0  0  0  0  0  0  0  0  0  0  0
    0.1626    9.3991   -4.1381 H   0  0  0  0  0  0  0  0  0  0  0  0
    2.1820   10.0087   -2.8587 H   0  0  0  0  0  0  0  0  0  0  0  0
    0.3374    8.1854   -2.1223 H   0  0  0  0  0  0  0  0  0  0  0  0
    1.8945    8.5002   -1.2171 H   0  0  0  0  0  0  0  0  0  0  0  0
    0.6204    8.6930    0.6002 H   0  0  0  0  0  0  0  0  0  0  0  0
    0.1377   10.2977   -0.0926 H   0  0  0  0  0  0  0  0  0  0  0  0
   -1.1344    8.0258    0.4739 H   0  0  0  0  0  0  0  0  0  0  0  0
   -2.1432   11.6690    0.0274 H   0  0  0  0  0  0  0  0  0  0  0  0
   -1.2945   11.2710   -1.5050 H   0  0  0  0  0  0  0  0  0  0  0  0
   -3.0711   11.5366   -1.5050 H   0  0  0  0  0  0  0  0  0  0  0  0
   -3.8961    9.2491    0.8275 H   0  0  0  0  0  0  0  0  0  0  0  0
   -4.5510    9.9927   -0.6708 H   0  0  0  0  0  0  0  0  0  0  0  0
   -4.0443    8.2693   -0.6708 H   0  0  0  0  0  0  0  0  0  0  0  0
    0.1328   11.4931   -1.3189 H   0  0  0  0  0  0  0  0  0  0  0  0
    1.4869   10.9265    0.6002 H   0  0  0  0  0  0  0  0  0  0  0  0
    2.8706   10.4667   -0.4153 H   0  0  0  0  0  0  0  0  0  0  0  0
    2.6385   12.8938    1.0752 H   0  0  0  0  0  0  0  0  0  0  0  0
    3.8211   12.6300   -0.2033 H   0  0  0  0  0  0  0  0  0  0  0  0
    0.8530   13.8610    0.9912 H   0  0  0  0  0  0  0  0  0  0  0  0
    0.2885   14.9174   -0.3474 H   0  0  0  0  0  0  0  0  0  0  0  0
   -0.1248   13.1693   -0.3474 H   0  0  0  0  0  0  0  0  0  0  0  0
    3.6472   14.5247   -1.7034 H   0  0  0  0  0  0  0  0  0  0  0  0
    3.2705   15.2107    0.7519 H   0  0  0  0  0  0  0  0  0  0  0  0
    3.9768   16.3925   -0.4705 H   0  0  0  0  0  0  0  0  0  0  0  0
    2.1908   17.3727    1.1995 H   0  0  0  0  0  0  0  0  0  0  0  0
   -0.0216   15.9545   -1.8667 H   0  0  0  0  0  0  0  0  0  0  0  0
    1.3626   18.4579   -3.0128 H   0  0  0  0  0  0  0  0  0  0  0  0
    0.2252   17.3403   -3.8894 H   0  0  0  0  0  0  0  0  0  0  0  0
   -0.8790   19.4400   -3.1900 H   0  0  0  0  0  0  0  0  0  0  0  0
   -1.5885   17.9737   -2.4071 H   0  0  0  0  0  0  0  0  0  0  0  0
   -1.3916   19.7076   -0.7586 H   0  0  0  0  0  0  0  0  0  0  0  0
    1.3900   19.8110   -0.7720 H   0  0  0  0  0  0  0  0  0  0  0  0
   -1.4553   17.2425    1.4104 H   0  0  0  0  0  0  0  0  0  0  0  0
   -2.2359   17.7968   -0.1095 H   0  0  0  0  0  0  0  0  0  0  0  0
   -1.2220   16.3140   -0.1095 H   0  0  0  0  0  0  0  0  0  0  0  0
   -0.0209   18.3217    2.1648 H   0  0  0  0  0  0  0  0  0  0  0  0
    1.3604   19.1042    1.3244 H   0  0  0  0  0  0  0  0  0  0  0  0
   -0.2539   19.8921    1.3244 H   0  0  0  0  0  0  0  0  0  0  0  0
    3.7201   17.0587   -2.3664 H   0  0  0  0  0  0  0  0  0  0  0  0
    3.7406   15.9357   -3.7682 H   0  0  0  0  0  0  0  0  0  0  0  0
    2.6360   17.3522   -3.7682 H   0  0  0  0  0  0  0  0  0  0  0  0
    0.6491   15.3232   -4.1292 H   0  0  0  0  0  0  0  0  0  0  0  0
    2.3004   14.4841   -4.1944 H   0  0  0  0  0  0  0  0  0  0  0  0
   -0.1431   13.6368   -2.6145 H   0  0  0  0  0  0  0  0  0  0  0  0
    0.6495   12.7965   -4.0048 H   0  0  0  0  0  0  0  0  0  0  0  0
    3.8705   12.1482   -2.2183 H   0  0  0  0  0  0  0  0  0  0  0  0
    2.8954   11.4748   -3.5682 H   0  0  0  0  0  0  0  0  0  0  0  0
    3.3497   13.2127   -3.5682 H   0  0  0  0  0  0  0  0  0  0  0  0
  1  2  1  0
  2  3  1  0
  3  4  1  0
  4  5  1  0
  5  6  1  0
  6  7  1  0
  7  8  1  0
  7  9  1  0
  2 10  1  0
 10 11  1  0
 11 12  1  0
 12 13  1  0
 13 14  1  1
 13 15  1  0
 15 16  1  0
 16 17  1  0
 17 18  2  0
 18 19  1  0
 19 20  1  0
 20 21  1  0
 21 22  1  0
 22 23  1  0
 22 24  1  0
 24 25  1  0
 24 26  1  0
 19 27  1  0
 27 28  1  6
 27 29  1  0
 29 30  1  0
 30 31  1  0
 31 32  1  6
  7  5  1  0
 31 10  1  0
 31 13  1  0
 27 15  1  0
 24 18  1  0
  1 33  1  0
  1 34  1  0
  1 35  1  0
  2 36  1  6
  3 37  1  0
  3 38  1  0
  4 39  1  0
  4 40  1  0
  5 41  1  1
  8 42  1  0
  8 43  1  0
  8 44  1  0
  9 45  1  0
  9 46  1  0
  9 47  1  0
 10 48  1  1
 11 49  1  0
 11 50  1  0
 12 51  1  0
 12 52  1  0
 14 53  1  0
 14 54  1  0
 14 55  1  0
 15 56  1  6
 16 57  1  0
 16 58  1  0
 17 59  1  0
 19 60  1  1
 20 61  1  0
 20 62  1  0
 21 63  1  0
 21 64  1  0
 22 65  1  1
 23 66  1  0
 25 67  1  0
 25 68  1  0
 25 69  1  0
 26 70  1  0
 26 71  1  0
 26 72  1  0
 28 73  1  0
 28 74  1  0
 28 75  1  0
 29 76  1  0
 29 77  1  0
 30 78  1  0
 30 79  1  0
 32 80  1  0
 32 81  1  0
 32 82  1  0
M  END
>  <meeko>  (9) 
{"is_sidechain": [false], "intermolecular_energy": 2.731, "internal_energy": -0.839}

$$$$
EPH_relaxed_0001_pdb2pqr_Repair_148_r2_0001_out
     RDKit          3D

 82 86  0  0  0  0  0  0  0  0999 V2000
    0.7060   18.1040   -0.0420 C   0  0  0  0  0  0  0  0  0  0  0  0
    1.7020   17.0570   -0.5450 C   0  0  2  0  0  0  0  0  0  0  0  0
    2.6920   17.6430   -1.5720 C   0  0  0  0  0  0  0  0  0  0  0  0
    4.1620   17.4000   -1.2170 C   0  0  0  0  0  0  0  0  0  0  0  0
    5.0820   17.9180   -2.2810 C   0  0  2  0  0  0  0  0  0  0  0  0
    4.6530   17.6530   -3.6240 O   0  0  0  0  0  0  0  0  0  0  0  0
    5.8750   17.0190   -3.2110 C   0  0  0  0  0  0  0  0  0  0  0  0
    5.7860   15.5280   -3.1190 C   0  0  0  0  0  0  0  0  0  0  0  0
    7.0960   17.5760   -3.8740 C   0  0  0  0  0  0  0  0  0  0  0  0
    0.9530   15.8790   -1.1580 C   0  0  1  0  0  0  0  0  0  0  0  0
    0.4650   16.1680   -2.6030 C   0  0  0  0  0  0  0  0  0  0  0  0
    0.5630   14.8320   -3.3840 C   0  0  0  0  0  0  0  0  0  0  0  0
    0.7820   13.7580   -2.2930 C   0  0  1  0  0  0  0  0  0  0  0  0
   -0.6430   13.4680   -1.7240 C   0  0  0  0  0  0  0  0  0  0  0  0
    1.5000   12.4460   -2.7490 C   0  0  2  0  0  0  0  0  0  0  0  0
    0.7480   11.6270   -3.8120 C   0  0  0  0  0  0  0  0  0  0  0  0
   -0.1890   10.5950   -3.2780 C   0  0  0  0  0  0  0  0  0  0  0  0
   -0.2110   10.1390   -2.0120 C   0  0  0  0  0  0  0  0  0  0  0  0
    0.8380   10.5990   -0.9910 C   0  0  1  0  0  0  0  0  0  0  0  0
    1.3870    9.3680   -0.2230 C   0  0  0  0  0  0  0  0  0  0  0  0
    0.2790    8.5340    0.4140 C   0  0  0  0  0  0  0  0  0  0  0  0
   -0.7110    8.0470   -0.6410 C   0  0  2  0  0  0  0  0  0  0  0  0
   -0.0470    7.1190   -1.5030 O   0  0  0  0  0  0  0  0  0  0  0  0
   -1.3230    9.1990   -1.4850 C   0  0  0  0  0  0  0  0  0  0  0  0
   -2.2880   10.0330   -0.6060 C   0  0  0  0  0  0  0  0  0  0  0  0
   -2.1940    8.5630   -2.6020 C   0  0  0  0  0  0  0  0  0  0  0  0
    1.9950   11.5300   -1.5570 C   0  0  1  0  0  0  0  0  0  0  0  0
    3.1550   10.6550   -2.1210 C   0  0  0  0  0  0  0  0  0  0  0  0
    2.6060   12.3680   -0.3720 C   0  0  0  0  0  0  0  0  0  0  0  0
    1.9250   13.7120   -0.0480 C   0  0  0  0  0  0  0  0  0  0  0  0
    1.7280   14.5470   -1.3160 C   0  0  2  0  0  0  0  0  0  0  0  0
    3.1450   14.8740   -1.8980 C   0  0  0  0  0  0  0  0  0  0  0  0
    0.7023   18.1079    1.0580 H   0  0  0  0  0  0  0  0  0  0  0  0
    1.0006   19.0974   -0.4112 H   0  0  0  0  0  0  0  0  0  0  0  0
   -0.3009   17.8594   -0.4112 H   0  0  0  0  0  0  0  0  0  0  0  0
    2.2880   16.7154    0.3210 H   0  0  0  0  0  0  0  0  0  0  0  0
    2.4903   17.1830   -2.5506 H   0  0  0  0  0  0  0  0  0  0  0  0
    2.5390   18.7323   -1.5812 H   0  0  0  0  0  0  0  0  0  0  0  0
    4.3891   17.9108   -0.2697 H   0  0  0  0  0  0  0  0  0  0  0  0
    4.3183   16.3149   -1.1269 H   0  0  0  0  0  0  0  0  0  0  0  0
    5.3769   18.7668   -1.6465 H   0  0  0  0  0  0  0  0  0  0  0  0
    5.7680   15.2263   -2.0613 H   0  0  0  0  0  0  0  0  0  0  0  0
    4.8657   15.1844   -3.6140 H   0  0  0  0  0  0  0  0  0  0  0  0
    6.6588   15.0773   -3.6140 H   0  0  0  0  0  0  0  0  0  0  0  0
    7.8130   17.9031   -3.1066 H   0  0  0  0  0  0  0  0  0  0  0  0
    7.5589   16.8000   -4.5013 H   0  0  0  0  0  0  0  0  0  0  0  0
    6.8134   18.4343   -4.5013 H   0  0  0  0  0  0  0  0  0  0  0  0
    0.1527   15.7620   -0.4125 H   0  0  0  0  0  0  0  0  0  0  0  0
   -0.5763   16.5221   -2.5874 H   0  0  0  0  0  0  0  0  0  0  0  0
    1.0772   16.9488   -3.0778 H   0  0  0  0  0  0  0  0  0  0  0  0
   -0.3664   14.6377   -3.9393 H   0  0  0  0  0  0  0  0  0  0  0  0
    1.3730   14.8421   -4.1282 H   0  0  0  0  0  0  0  0  0  0  0  0
   -0.6073   13.4753   -0.6246 H   0  0  0  0  0  0  0  0  0  0  0  0
   -1.3419   14.2423   -2.0733 H   0  0  0  0  0  0  0  0  0  0  0  0
   -0.9836   12.4821   -2.0733 H   0  0  0  0  0  0  0  0  0  0  0  0
    2.4001   12.8315   -3.2502 H   0  0  0  0  0  0  0  0  0  0  0  0
    0.1665   12.3262   -4.4309 H   0  0  0  0  0  0  0  0  0  0  0  0
    1.5181   11.0771   -4.3729 H   0  0  0  0  0  0  0  0  0  0  0  0
   -0.9237   10.1714   -3.9785 H   0  0  0  0  0  0  0  0  0  0  0  0
    0.3119   11.2694   -0.2955 H   0  0  0  0  0  0  0  0  0  0  0  0
    1.9456    8.7336   -0.9269 H   0  0  0  0  0  0  0  0  0  0  0  0
    2.0324    9.7399    0.5864 H   0  0  0  0  0  0  0  0  0  0  0  0
    0.7267    7.6640    0.9166 H   0  0  0  0  0  0  0  0  0  0  0  0
   -0.2603    9.1611    1.1392 H   0  0  0  0  0  0  0  0  0  0  0  0
   -1.5478    7.5680   -0.1116 H   0  0  0  0  0  0  0  0  0  0  0  0
   -0.4980    7.1420   -2.3640 H   0  0  0  0  0  0  0  0  0  0  0  0
   -2.0712    9.8456    0.4560 H   0  0  0  0  0  0  0  0  0  0  0  0
   -2.1518   11.1024   -0.8249 H   0  0  0  0  0  0  0  0  0  0  0  0
   -3.3263    9.7433   -0.8249 H   0  0  0  0  0  0  0  0  0  0  0  0
   -3.0022    7.9728   -2.1454 H   0  0  0  0  0  0  0  0  0  0  0  0
   -2.6281    9.3581   -3.2260 H   0  0  0  0  0  0  0  0  0  0  0  0
   -1.5688    7.9074   -3.2260 H   0  0  0  0  0  0  0  0  0  0  0  0
    3.7275   10.2232   -1.2869 H   0  0  0  0  0  0  0  0  0  0  0  0
    2.7372    9.8451   -2.7371 H   0  0  0  0  0  0  0  0  0  0  0  0
    3.8190   11.2792   -2.7371 H   0  0  0  0  0  0  0  0  0  0  0  0
    2.5612   11.7453    0.5337 H   0  0  0  0  0  0  0  0  0  0  0  0
    3.6222   12.6319   -0.7001 H   0  0  0  0  0  0  0  0  0  0  0  0
    0.9442   13.5170    0.4103 H   0  0  0  0  0  0  0  0  0  0  0  0
    2.5693   14.2733    0.6447 H   0  0  0  0  0  0  0  0  0  0  0  0
    3.8522   15.0372   -1.0714 H   0  0  0  0  0  0  0  0  0  0  0  0
    3.4909   14.0321   -2.5157 H   0  0  0  0  0  0  0  0  0  0  0  0
    3.0870   15.7824   -2.5157 H   0  0  0  0  0  0  0  0  0  0  0  0
  1  2  1  0
  2  3  1  0
  3  4  1  0
  4  5  1  0
  5  6  1  0
  6  7  1  0
  7  8  1  0
  7  9  1  0
  2 10  1  0
 10 11  1  0
 11 12  1  0
 12 13  1  0
 13 14  1  1
 13 15  1  0
 15 16  1  0
 16 17  1  0
 17 18  2  0
 18 19  1  0
 19 20  1  0
 20 21  1  0
 21 22  1  0
 22 23  1  0
 22 24  1  0
 24 25  1  0
 24 26  1  0
 19 27  1  0
 27 28  1  6
 27 29  1  0
 29 30  1  0
 30 31  1  0
 31 32  1  6
  7  5  1  0
 31 10  1  0
 31 13  1  0
 27 15  1  0
 24 18  1  0
  1 33  1  0
  1 34  1  0
  1 35  1  0
  2 36  1  1
  3 37  1  0
  3 38  1  0
  4 39  1  0
  4 40  1  0
  5 41  1  6
  8 42  1  0
  8 43  1  0
  8 44  1  0
  9 45  1  0
  9 46  1  0
  9 47  1  0
 10 48  1  1
 11 49  1  0
 11 50  1  0
 12 51  1  0
 12 52  1  0
 14 53  1  0
 14 54  1  0
 14 55  1  0
 15 56  1  6
 16 57  1  0
 16 58  1  0
 17 59  1  0
 19 60  1  1
 20 61  1  0
 20 62  1  0
 21 63  1  0
 21 64  1  0
 22 65  1  1
 23 66  1  0
 25 67  1  0
 25 68  1  0
 25 69  1  0
 26 70  1  0
 26 71  1  0
 26 72  1  0
 28 73  1  0
 28 74  1  0
 28 75  1  0
 29 76  1  0
 29 77  1  0
 30 78  1  0
 30 79  1  0
 32 80  1  0
 32 81  1  0
 32 82  1  0
M  END
>  <meeko>  (10) 
{"is_sidechain": [false], "intermolecular_energy": 2.731, "internal_energy": -0.839}

$$$$
EPH_relaxed_0001_pdb2pqr_Repair_148_r2_0001_out
     RDKit          3D

 82 86  0  0  0  0  0  0  0  0999 V2000
    0.8960    8.7140   -0.3310 C   0  0  0  0  0  0  0  0  0  0  0  0
   -0.1590    9.4870   -1.1280 C   0  0  2  0  0  0  0  0  0  0  0  0
   -0.8740    8.5940   -2.1620 C   0  0  0  0  0  0  0  0  0  0  0  0
   -2.3570    8.3680   -1.8590 C   0  0  0  0  0  0  0  0  0  0  0  0
   -2.9010    7.1860   -2.6030 C   0  0  2  0  0  0  0  0  0  0  0  0
   -3.9050    7.5020   -3.5770 O   0  0  0  0  0  0  0  0  0  0  0  0
   -4.3310    6.6970   -2.4650 C   0  0  0  0  0  0  0  0  0  0  0  0
   -5.3050    7.3790   -1.5580 C   0  0  0  0  0  0  0  0  0  0  0  0
   -4.6400    5.2790   -2.8320 C   0  0  0  0  0  0  0  0  0  0  0  0
    0.4870   10.6780   -1.8260 C   0  0  1  0  0  0  0  0  0  0  0  0
    0.1480   10.7400   -3.3390 C   0  0  0  0  0  0  0  0  0  0  0  0
    0.0380   12.2410   -3.7120 C   0  0  0  0  0  0  0  0  0  0  0  0
    0.6380   12.9890   -2.4980 C   0  0  1  0  0  0  0  0  0  0  0  0
    2.1830   12.9200   -2.7080 C   0  0  0  0  0  0  0  0  0  0  0  0
    0.1500   14.4590   -2.2820 C   0  0  2  0  0  0  0  0  0  0  0  0
    0.4940   15.4350   -3.4210 C   0  0  0  0  0  0  0  0  0  0  0  0
    1.8000   16.1450   -3.2790 C   0  0  0  0  0  0  0  0  0  0  0  0
    2.5280   16.2240   -2.1500 C   0  0  0  0  0  0  0  0  0  0  0  0
    2.0040   15.6420   -0.8320 C   0  0  1  0  0  0  0  0  0  0  0  0
    2.2130   16.6720    0.3090 C   0  0  0  0  0  0  0  0  0  0  0  0
    3.6600   17.1430    0.4140 C   0  0  0  0  0  0  0  0  0  0  0  0
    4.1270   17.7680   -0.8980 C   0  0  2  0  0  0  0  0  0  0  0  0
    3.3960   18.9790   -1.1170 O   0  0  0  0  0  0  0  0  0  0  0  0
    3.9550   16.8260   -2.1220 C   0  0  0  0  0  0  0  0  0  0  0  0
    4.9720   15.6610   -2.0280 C   0  0  0  0  0  0  0  0  0  0  0  0
    4.3290   17.6270   -3.3980 C   0  0  0  0  0  0  0  0  0  0  0  0
    0.5230   15.0650   -0.8690 C   0  0  1  0  0  0  0  0  0  0  0  0
   -0.5000   16.2070   -0.5900 C   0  0  0  0  0  0  0  0  0  0  0  0
    0.3500   14.0190    0.2950 C   0  0  0  0  0  0  0  0  0  0  0  0
    0.7370   12.5610   -0.0170 C   0  0  0  0  0  0  0  0  0  0  0  0
    0.0950   12.0920   -1.3270 C   0  0  2  0  0  0  0  0  0  0  0  0
   -1.4590   12.1290   -1.1380 C   0  0  0  0  0  0  0  0  0  0  0  0
    0.7132    8.8479    0.7454 H   0  0  0  0  0  0  0  0  0  0  0  0
    0.8354    7.6450   -0.5830 H   0  0  0  0  0  0  0  0  0  0  0  0
    1.8971    9.0939   -0.5830 H   0  0  0  0  0  0  0  0  0  0  0  0
   -0.9190    9.8411   -0.4159 H   0  0  0  0  0  0  0  0  0  0  0  0
   -0.7901    9.0709   -3.1497 H   0  0  0  0  0  0  0  0  0  0  0  0
   -0.3854    7.6090   -2.1285 H   0  0  0  0  0  0  0  0  0  0  0  0
   -2.4781    8.1961   -0.7793 H   0  0  0  0  0  0  0  0  0  0  0  0
   -2.9127    9.2611   -2.1808 H   0  0  0  0  0  0  0  0  0  0  0  0
   -1.9337    6.6668   -2.5335 H   0  0  0  0  0  0  0  0  0  0  0  0
   -5.0286    7.1854   -0.5110 H   0  0  0  0  0  0  0  0  0  0  0  0
   -5.2863    8.4623   -1.7479 H   0  0  0  0  0  0  0  0  0  0  0  0
   -6.3166    6.9909   -1.7479 H   0  0  0  0  0  0  0  0  0  0  0  0
   -4.7698    4.6833   -1.9165 H   0  0  0  0  0  0  0  0  0  0  0  0
   -5.5662    5.2471   -3.4246 H   0  0  0  0  0  0  0  0  0  0  0  0
   -3.8111    4.8647   -3.4246 H   0  0  0  0  0  0  0  0  0  0  0  0
    1.5436   10.4763   -1.5957 H   0  0  0  0  0  0  0  0  0  0  0  0
    0.9459   10.2614   -3.9258 H   0  0  0  0  0  0  0  0  0  0  0  0
   -0.7911   10.2096   -3.5553 H   0  0  0  0  0  0  0  0  0  0  0  0
    0.6127   12.4576   -4.6245 H   0  0  0  0  0  0  0  0  0  0  0  0
   -0.9988   12.5449   -3.9188 H   0  0  0  0  0  0  0  0  0  0  0  0
    2.6854   12.8976   -1.7297 H   0  0  0  0  0  0  0  0  0  0  0  0
    2.4362   12.0097   -3.2712 H   0  0  0  0  0  0  0  0  0  0  0  0
    2.5163   13.8042   -3.2712 H   0  0  0  0  0  0  0  0  0  0  0  0
   -0.9443   14.3494   -2.3031 H   0  0  0  0  0  0  0  0  0  0  0  0
    0.5172   14.8652   -4.3616 H   0  0  0  0  0  0  0  0  0  0  0  0
   -0.2810   16.2153   -3.3981 H   0  0  0  0  0  0  0  0  0  0  0  0
    2.2008   16.6457   -4.1727 H   0  0  0  0  0  0  0  0  0  0  0  0
    2.6056   14.7420   -0.6370 H   0  0  0  0  0  0  0  0  0  0  0  0
    1.5711   17.5447    0.1182 H   0  0  0  0  0  0  0  0  0  0  0  0
    1.9531   16.1777    1.2567 H   0  0  0  0  0  0  0  0  0  0  0  0
    3.7377   17.8910    1.2168 H   0  0  0  0  0  0  0  0  0  0  0  0
    4.2969   16.2738    0.6351 H   0  0  0  0  0  0  0  0  0  0  0  0
    5.2051   17.9651   -0.8037 H   0  0  0  0  0  0  0  0  0  0  0  0
    4.0410   19.7010   -1.2040 H   0  0  0  0  0  0  0  0  0  0  0  0
    5.1713   15.4327   -0.9706 H   0  0  0  0  0  0  0  0  0  0  0  0
    4.5568   14.7709   -2.5233 H   0  0  0  0  0  0  0  0  0  0  0  0
    5.9100   15.9522   -2.5233 H   0  0  0  0  0  0  0  0  0  0  0  0
    4.7780   18.5886   -3.1088 H   0  0  0  0  0  0  0  0  0  0  0  0
    5.0508   17.0500   -3.9947 H   0  0  0  0  0  0  0  0  0  0  0  0
    3.4232   17.8100   -3.9947 H   0  0  0  0  0  0  0  0  0  0  0  0
   -0.6168   16.3374    0.4960 H   0  0  0  0  0  0  0  0  0  0  0  0
   -0.1337   17.1441   -1.0345 H   0  0  0  0  0  0  0  0  0  0  0  0
   -1.4716   15.9456   -1.0345 H   0  0  0  0  0  0  0  0  0  0  0  0
    0.9708   14.3546    1.1388 H   0  0  0  0  0  0  0  0  0  0  0  0
   -0.7306   13.9922    0.4991 H   0  0  0  0  0  0  0  0  0  0  0  0
    1.8310   12.4903   -0.1068 H   0  0  0  0  0  0  0  0  0  0  0  0
    0.3758   11.9194    0.8003 H   0  0  0  0  0  0  0  0  0  0  0  0
   -1.6977   12.1347   -0.0642 H   0  0  0  0  0  0  0  0  0  0  0  0
   -1.8641   13.0370   -1.6085 H   0  0  0  0  0  0  0  0  0  0  0  0
   -1.9068   11.2413   -1.6085 H   0  0  0  0  0  0  0  0  0  0  0  0
  1  2  1  0
  2  3  1  0
  3  4  1  0
  4  5  1  0
  5  6  1  0
  6  7  1  0
  7  8  1  0
  7  9  1  0
  2 10  1  0
 10 11  1  0
 11 12  1  0
 12 13  1  0
 13 14  1  6
 13 15  1  0
 15 16  1  0
 16 17  1  0
 17 18  2  0
 18 19  1  0
 19 20  1  0
 20 21  1  0
 21 22  1  0
 22 23  1  0
 22 24  1  0
 24 25  1  0
 24 26  1  0
 19 27  1  0
 27 28  1  1
 27 29  1  0
 29 30  1  0
 30 31  1  0
 31 32  1  1
  7  5  1  0
 31 10  1  0
 31 13  1  0
 27 15  1  0
 24 18  1  0
  1 33  1  0
  1 34  1  0
  1 35  1  0
  2 36  1  1
  3 37  1  0
  3 38  1  0
  4 39  1  0
  4 40  1  0
  5 41  1  6
  8 42  1  0
  8 43  1  0
  8 44  1  0
  9 45  1  0
  9 46  1  0
  9 47  1  0
 10 48  1  6
 11 49  1  0
 11 50  1  0
 12 51  1  0
 12 52  1  0
 14 53  1  0
 14 54  1  0
 14 55  1  0
 15 56  1  1
 16 57  1  0
 16 58  1  0
 17 59  1  0
 19 60  1  1
 20 61  1  0
 20 62  1  0
 21 63  1  0
 21 64  1  0
 22 65  1  1
 23 66  1  0
 25 67  1  0
 25 68  1  0
 25 69  1  0
 26 70  1  0
 26 71  1  0
 26 72  1  0
 28 73  1  0
 28 74  1  0
 28 75  1  0
 29 76  1  0
 29 77  1  0
 30 78  1  0
 30 79  1  0
 32 80  1  0
 32 81  1  0
 32 82  1  0
M  END
>  <meeko>  (11) 
{"is_sidechain": [false], "intermolecular_energy": 2.731, "internal_energy": -0.839}

$$$$
EPH_relaxed_0001_pdb2pqr_Repair_148_r2_0001_out
     RDKit          3D

 82 86  0  0  0  0  0  0  0  0999 V2000
   -5.1090    5.9560   -1.6450 C   0  0  0  0  0  0  0  0  0  0  0  0
   -5.4150    7.4530   -1.7460 C   0  0  2  0  0  0  0  0  0  0  0  0
   -5.2000    8.1810   -0.4040 C   0  0  0  0  0  0  0  0  0  0  0  0
   -4.1420    9.2870   -0.4670 C   0  0  0  0  0  0  0  0  0  0  0  0
   -2.7900    8.7410   -0.8150 C   0  0  2  0  0  0  0  0  0  0  0  0
   -1.7590    9.0450    0.1340 O   0  0  0  0  0  0  0  0  0  0  0  0
   -1.6030    9.6140   -1.1760 C   0  0  0  0  0  0  0  0  0  0  0  0
   -1.7130   11.1060   -1.2080 C   0  0  0  0  0  0  0  0  0  0  0  0
   -0.4840    9.0100   -1.9650 C   0  0  0  0  0  0  0  0  0  0  0  0
   -6.8470    7.6590   -2.2270 C   0  0  1  0  0  0  0  0  0  0  0  0
   -7.1300    6.9550   -3.5800 C   0  0  0  0  0  0  0  0  0  0  0  0
   -8.5990    6.4630   -3.5300 C   0  0  0  0  0  0  0  0  0  0  0  0
   -9.2090    7.1810   -2.3040 C   0  0  1  0  0  0  0  0  0  0  0  0
   -9.5730    8.6100   -2.8150 C   0  0  0  0  0  0  0  0  0  0  0  0
  -10.4340    6.4800   -1.6310 C   0  0  2  0  0  0  0  0  0  0  0  0
  -11.6760    6.3350   -2.5270 C   0  0  0  0  0  0  0  0  0  0  0  0
  -12.6460    7.4680   -2.4610 C   0  0  0  0  0  0  0  0  0  0  0  0
  -12.6720    8.4200   -1.5100 C   0  0  0  0  0  0  0  0  0  0  0  0
  -11.7210    8.3600   -0.3080 C   0  0  1  0  0  0  0  0  0  0  0  0
  -12.5150    8.6330    0.9960 C   0  0  0  0  0  0  0  0  0  0  0  0
  -13.3010    9.9400    0.9390 C   0  0  0  0  0  0  0  0  0  0  0  0
  -14.2780    9.9380   -0.2340 C   0  0  2  0  0  0  0  0  0  0  0  0
  -15.2850    8.9510    0.0060 O   0  0  0  0  0  0  0  0  0  0  0  0
  -13.5920    9.6620   -1.6020 C   0  0  0  0  0  0  0  0  0  0  0  0
  -12.7250   10.8810   -2.0040 C   0  0  0  0  0  0  0  0  0  0  0  0
  -14.7050    9.5470   -2.6790 C   0  0  0  0  0  0  0  0  0  0  0  0
  -10.8120    7.0600   -0.2080 C   0  0  1  0  0  0  0  0  0  0  0  0
  -11.5810    5.9300    0.5430 C   0  0  0  0  0  0  0  0  0  0  0  0
   -9.5410    7.3870    0.6620 C   0  0  0  0  0  0  0  0  0  0  0  0
   -8.3220    7.9660   -0.0800 C   0  0  0  0  0  0  0  0  0  0  0  0
   -7.9850    7.1300   -1.3190 C   0  0  2  0  0  0  0  0  0  0  0  0
   -7.5930    5.6930   -0.8330 C   0  0  0  0  0  0  0  0  0  0  0  0
   -5.0494    5.6646   -0.5860 H   0  0  0  0  0  0  0  0  0  0  0  0
   -5.9088    5.3842   -2.1382 H   0  0  0  0  0  0  0  0  0  0  0  0
   -4.1489    5.7439   -2.1382 H   0  0  0  0  0  0  0  0  0  0  0  0
   -4.7125    7.8866   -2.4730 H   0  0  0  0  0  0  0  0  0  0  0  0
   -6.1553    8.6311   -0.0960 H   0  0  0  0  0  0  0  0  0  0  0  0
   -4.8389    7.4308    0.3149 H   0  0  0  0  0  0  0  0  0  0  0  0
   -4.4380   10.0204   -1.2315 H   0  0  0  0  0  0  0  0  0  0  0  0
   -4.0773    9.7569    0.5255 H   0  0  0  0  0  0  0  0  0  0  0  0
   -3.2434    7.8701   -1.3111 H   0  0  0  0  0  0  0  0  0  0  0  0
   -1.7416   11.4937   -0.1790 H   0  0  0  0  0  0  0  0  0  0  0  0
   -0.8434   11.5266   -1.7343 H   0  0  0  0  0  0  0  0  0  0  0  0
   -2.6349   11.3945   -1.7343 H   0  0  0  0  0  0  0  0  0  0  0  0
    0.2713    8.6023   -1.2771 H   0  0  0  0  0  0  0  0  0  0  0  0
   -0.8770    8.2015   -2.5989 H   0  0  0  0  0  0  0  0  0  0  0  0
   -0.0238    9.7822   -2.5989 H   0  0  0  0  0  0  0  0  0  0  0  0
   -6.8732    8.7581   -2.2618 H   0  0  0  0  0  0  0  0  0  0  0  0
   -6.9959    7.6634   -4.4108 H   0  0  0  0  0  0  0  0  0  0  0  0
   -6.4377    6.1154   -3.7405 H   0  0  0  0  0  0  0  0  0  0  0  0
   -9.1338    6.7427   -4.4497 H   0  0  0  0  0  0  0  0  0  0  0  0
   -8.6699    5.3682   -3.4503 H   0  0  0  0  0  0  0  0  0  0  0  0
   -9.7423    9.2748   -1.9551 H   0  0  0  0  0  0  0  0  0  0  0  0
   -8.7463    9.0029   -3.4250 H   0  0  0  0  0  0  0  0  0  0  0  0
  -10.4870    8.5595   -3.4250 H   0  0  0  0  0  0  0  0  0  0  0  0
  -10.0612    5.4577   -1.4698 H   0  0  0  0  0  0  0  0  0  0  0  0
  -11.3346    6.2401   -3.5684 H   0  0  0  0  0  0  0  0  0  0  0  0
  -12.2158    5.4505   -2.1579 H   0  0  0  0  0  0  0  0  0  0  0  0
  -13.4031    7.5299   -3.2566 H   0  0  0  0  0  0  0  0  0  0  0  0
  -10.9801    9.1574   -0.4668 H   0  0  0  0  0  0  0  0  0  0  0  0
  -13.2197    7.8044    1.1599 H   0  0  0  0  0  0  0  0  0  0  0  0
  -11.7890    8.7152    1.8183 H   0  0  0  0  0  0  0  0  0  0  0  0
  -13.8638   10.0629    1.8761 H   0  0  0  0  0  0  0  0  0  0  0  0
  -12.5923   10.7705    0.8044 H   0  0  0  0  0  0  0  0  0  0  0  0
  -14.7163   10.9448   -0.2996 H   0  0  0  0  0  0  0  0  0  0  0  0
  -15.1130    8.2030   -0.5900 H   0  0  0  0  0  0  0  0  0  0  0  0
  -12.3638   11.3889   -1.0976 H   0  0  0  0  0  0  0  0  0  0  0  0
  -11.8659   10.5393   -2.5999 H   0  0  0  0  0  0  0  0  0  0  0  0
  -13.3297   11.5805   -2.5999 H   0  0  0  0  0  0  0  0  0  0  0  0
  -15.6832    9.4459   -2.1861 H   0  0  0  0  0  0  0  0  0  0  0  0
  -14.7024   10.4502   -3.3069 H   0  0  0  0  0  0  0  0  0  0  0  0
  -14.5178    8.6634   -3.3069 H   0  0  0  0  0  0  0  0  0  0  0  0
  -11.4808    6.0772    1.6285 H   0  0  0  0  0  0  0  0  0  0  0  0
  -12.6448    5.9632    0.2651 H   0  0  0  0  0  0  0  0  0  0  0  0
  -11.1598    4.9526    0.2651 H   0  0  0  0  0  0  0  0  0  0  0  0
   -9.8412    8.1164    1.4287 H   0  0  0  0  0  0  0  0  0  0  0  0
   -9.2042    6.4167    1.0557 H   0  0  0  0  0  0  0  0  0  0  0  0
   -8.5469    8.9966   -0.3918 H   0  0  0  0  0  0  0  0  0  0  0  0
   -7.4574    7.9489    0.5999 H   0  0  0  0  0  0  0  0  0  0  0  0
   -7.5859    5.6671    0.2667 H   0  0  0  0  0  0  0  0  0  0  0  0
   -8.3254    4.9652   -1.2122 H   0  0  0  0  0  0  0  0  0  0  0  0
   -6.5924    5.4379   -1.2122 H   0  0  0  0  0  0  0  0  0  0  0  0
  1  2  1  0
  2  3  1  0
  3  4  1  0
  4  5  1  0
  5  6  1  0
  6  7  1  0
  7  8  1  0
  7  9  1  0
  2 10  1  0
 10 11  1  0
 11 12  1  0
 12 13  1  0
 13 14  1  6
 13 15  1  0
 15 16  1  0
 16 17  1  0
 17 18  2  0
 18 19  1  0
 19 20  1  0
 20 21  1  0
 21 22  1  0
 22 23  1  0
 22 24  1  0
 24 25  1  0
 24 26  1  0
 19 27  1  0
 27 28  1  1
 27 29  1  0
 29 30  1  0
 30 31  1  0
 31 32  1  1
  7  5  1  0
 31 10  1  0
 31 13  1  0
 27 15  1  0
 24 18  1  0
  1 33  1  0
  1 34  1  0
  1 35  1  0
  2 36  1  6
  3 37  1  0
  3 38  1  0
  4 39  1  0
  4 40  1  0
  5 41  1  6
  8 42  1  0
  8 43  1  0
  8 44  1  0
  9 45  1  0
  9 46  1  0
  9 47  1  0
 10 48  1  6
 11 49  1  0
 11 50  1  0
 12 51  1  0
 12 52  1  0
 14 53  1  0
 14 54  1  0
 14 55  1  0
 15 56  1  1
 16 57  1  0
 16 58  1  0
 17 59  1  0
 19 60  1  6
 20 61  1  0
 20 62  1  0
 21 63  1  0
 21 64  1  0
 22 65  1  6
 23 66  1  0
 25 67  1  0
 25 68  1  0
 25 69  1  0
 26 70  1  0
 26 71  1  0
 26 72  1  0
 28 73  1  0
 28 74  1  0
 28 75  1  0
 29 76  1  0
 29 77  1  0
 30 78  1  0
 30 79  1  0
 32 80  1  0
 32 81  1  0
 32 82  1  0
M  END
>  <meeko>  (12) 
{"is_sidechain": [false], "intermolecular_energy": 2.731, "internal_energy": -0.839}

$$$$
EPH_relaxed_0001_pdb2pqr_Repair_148_r2_0001_out
     RDKit          3D

 82 86  0  0  0  0  0  0  0  0999 V2000
    1.4780   17.7960   -2.6650 C   0  0  0  0  0  0  0  0  0  0  0  0
    2.7750   17.1580   -2.1590 C   0  0  2  0  0  0  0  0  0  0  0  0
    4.0170   17.7110   -2.8860 C   0  0  0  0  0  0  0  0  0  0  0  0
    5.3310   17.0640   -2.4390 C   0  0  0  0  0  0  0  0  0  0  0  0
    6.5060   17.6300   -3.1760 C   0  0  2  0  0  0  0  0  0  0  0  0
    6.3460   17.6960   -4.5990 O   0  0  0  0  0  0  0  0  0  0  0  0
    7.3750   16.8170   -4.1170 C   0  0  0  0  0  0  0  0  0  0  0  0
    7.1050   15.3670   -4.3710 C   0  0  0  0  0  0  0  0  0  0  0  0
    8.7630   17.2980   -4.4060 C   0  0  0  0  0  0  0  0  0  0  0  0
    2.7070   15.6440   -2.3210 C   0  0  1  0  0  0  0  0  0  0  0  0
    4.0980   15.0090   -2.5880 C   0  0  0  0  0  0  0  0  0  0  0  0
    4.1010   13.6270   -1.8850 C   0  0  0  0  0  0  0  0  0  0  0  0
    2.6190   13.3700   -1.5240 C   0  0  1  0  0  0  0  0  0  0  0  0
    1.9720   12.8380   -2.8410 C   0  0  0  0  0  0  0  0  0  0  0  0
    2.3580   12.4040   -0.3220 C   0  0  2  0  0  0  0  0  0  0  0  0
    2.8610   10.9630   -0.5220 C   0  0  0  0  0  0  0  0  0  0  0  0
    1.8730   10.0220   -1.1290 C   0  0  0  0  0  0  0  0  0  0  0  0
    0.5500   10.2400   -1.2380 C   0  0  0  0  0  0  0  0  0  0  0  0
   -0.0950   11.4940   -0.6320 C   0  0  1  0  0  0  0  0  0  0  0  0
   -1.3740   11.0930    0.1480 C   0  0  0  0  0  0  0  0  0  0  0  0
   -2.3510   10.2890   -0.7040 C   0  0  0  0  0  0  0  0  0  0  0  0
   -1.6910    9.0210   -1.2400 C   0  0  2  0  0  0  0  0  0  0  0  0
   -1.4080    8.1490   -0.1410 O   0  0  0  0  0  0  0  0  0  0  0  0
   -0.3860    9.2990   -2.0360 C   0  0  0  0  0  0  0  0  0  0  0  0
   -0.7330    9.9850   -3.3810 C   0  0  0  0  0  0  0  0  0  0  0  0
    0.2530    7.9310   -2.3990 C   0  0  0  0  0  0  0  0  0  0  0  0
    0.8710   12.4280    0.2170 C   0  0  1  0  0  0  0  0  0  0  0  0
    0.9250   11.9330    1.6950 C   0  0  0  0  0  0  0  0  0  0  0  0
    0.2730   13.8840    0.2580 C   0  0  0  0  0  0  0  0  0  0  0  0
    0.6630   14.8280   -0.8940 C   0  0  0  0  0  0  0  0  0  0  0  0
    2.1790   14.8230   -1.1180 C   0  0  2  0  0  0  0  0  0  0  0  0
    2.8560   15.3740    0.1840 C   0  0  0  0  0  0  0  0  0  0  0  0
    0.8600   18.1000   -1.8073 H   0  0  0  0  0  0  0  0  0  0  0  0
    1.7176   18.6790   -3.2756 H   0  0  0  0  0  0  0  0  0  0  0  0
    0.9248   17.0672   -3.2756 H   0  0  0  0  0  0  0  0  0  0  0  0
    2.8758   17.4137   -1.0939 H   0  0  0  0  0  0  0  0  0  0  0  0
    3.8938   17.5371   -3.9652 H   0  0  0  0  0  0  0  0  0  0  0  0
    4.0848   18.7806   -2.6382 H   0  0  0  0  0  0  0  0  0  0  0  0
    5.4670   17.2407   -1.3618 H   0  0  0  0  0  0  0  0  0  0  0  0
    5.2751   15.9874   -2.6579 H   0  0  0  0  0  0  0  0  0  0  0  0
    6.7505   18.2865   -2.3279 H   0  0  0  0  0  0  0  0  0  0  0  0
    7.0066   14.8387   -3.4112 H   0  0  0  0  0  0  0  0  0  0  0  0
    6.1720   15.2627   -4.9443 H   0  0  0  0  0  0  0  0  0  0  0  0
    7.9379   14.9339   -4.9443 H   0  0  0  0  0  0  0  0  0  0  0  0
    9.2921   17.4814   -3.4592 H   0  0  0  0  0  0  0  0  0  0  0  0
    9.3024   16.5344   -4.9856 H   0  0  0  0  0  0  0  0  0  0  0  0
    8.7143   18.2317   -4.9856 H   0  0  0  0  0  0  0  0  0  0  0  0
    1.9987   15.5799   -3.1602 H   0  0  0  0  0  0  0  0  0  0  0  0
    4.2562   14.8843   -3.6694 H   0  0  0  0  0  0  0  0  0  0  0  0
    4.9052   15.6497   -2.2032 H   0  0  0  0  0  0  0  0  0  0  0  0
    4.4764   12.8469   -2.5636 H   0  0  0  0  0  0  0  0  0  0  0  0
    4.7549   13.6101   -1.0006 H   0  0  0  0  0  0  0  0  0  0  0  0
    1.1441   12.1572   -2.5938 H   0  0  0  0  0  0  0  0  0  0  0  0
    1.5875   13.6847   -3.4287 H   0  0  0  0  0  0  0  0  0  0  0  0
    2.7284   12.2972   -3.4287 H   0  0  0  0  0  0  0  0  0  0  0  0
    2.9907   12.8339    0.4685 H   0  0  0  0  0  0  0  0  0  0  0  0
    3.7436   10.9988   -1.1775 H   0  0  0  0  0  0  0  0  0  0  0  0
    3.0754   10.5727    0.4838 H   0  0  0  0  0  0  0  0  0  0  0  0
    2.2600    9.0696   -1.5203 H   0  0  0  0  0  0  0  0  0  0  0  0
   -0.3638   12.1393   -1.4813 H   0  0  0  0  0  0  0  0  0  0  0  0
   -1.0811   10.4853    1.0169 H   0  0  0  0  0  0  0  0  0  0  0  0
   -1.8822   12.0192    0.4544 H   0  0  0  0  0  0  0  0  0  0  0  0
   -3.2199   10.0106   -0.0896 H   0  0  0  0  0  0  0  0  0  0  0  0
   -2.6659   10.9086   -1.5566 H   0  0  0  0  0  0  0  0  0  0  0  0
   -2.3950    8.5556   -1.9455 H   0  0  0  0  0  0  0  0  0  0  0  0
   -1.6450    7.2460   -0.4140 H   0  0  0  0  0  0  0  0  0  0  0  0
   -1.2215   10.9508   -3.1847 H   0  0  0  0  0  0  0  0  0  0  0  0
    0.1895   10.1510   -3.9567 H   0  0  0  0  0  0  0  0  0  0  0  0
   -1.4134    9.3402   -3.9567 H   0  0  0  0  0  0  0  0  0  0  0  0
    0.5065    7.3884   -1.4764 H   0  0  0  0  0  0  0  0  0  0  0  0
   -0.4612    7.3377   -2.9889 H   0  0  0  0  0  0  0  0  0  0  0  0
    1.1663    8.0979   -2.9889 H   0  0  0  0  0  0  0  0  0  0  0  0
    0.8311   12.7936    2.3736 H   0  0  0  0  0  0  0  0  0  0  0  0
    0.0981   11.2307    1.8769 H   0  0  0  0  0  0  0  0  0  0  0  0
    1.8838   11.4255    1.8769 H   0  0  0  0  0  0  0  0  0  0  0  0
   -0.8233   13.7935    0.2573 H   0  0  0  0  0  0  0  0  0  0  0  0
    0.6974   14.3438    1.1627 H   0  0  0  0  0  0  0  0  0  0  0  0
    0.1620   14.4971   -1.8157 H   0  0  0  0  0  0  0  0  0  0  0  0
    0.3506   15.8495   -0.6314 H   0  0  0  0  0  0  0  0  0  0  0  0
    2.3463   14.9591    1.0661 H   0  0  0  0  0  0  0  0  0  0  0  0
    3.9154   15.0782    0.1998 H   0  0  0  0  0  0  0  0  0  0  0  0
    2.7815   16.4714    0.1998 H   0  0  0  0  0  0  0  0  0  0  0  0
  1  2  1  0
  2  3  1  0
  3  4  1  0
  4  5  1  0
  5  6  1  0
  6  7  1  0
  7  8  1  0
  7  9  1  0
  2 10  1  0
 10 11  1  0
 11 12  1  0
 12 13  1  0
 13 14  1  6
 13 15  1  0
 15 16  1  0
 16 17  1  0
 17 18  2  0
 18 19  1  0
 19 20  1  0
 20 21  1  0
 21 22  1  0
 22 23  1  0
 22 24  1  0
 24 25  1  0
 24 26  1  0
 19 27  1  0
 27 28  1  1
 27 29  1  0
 29 30  1  0
 30 31  1  0
 31 32  1  1
  7  5  1  0
 31 10  1  0
 31 13  1  0
 27 15  1  0
 24 18  1  0
  1 33  1  0
  1 34  1  0
  1 35  1  0
  2 36  1  1
  3 37  1  0
  3 38  1  0
  4 39  1  0
  4 40  1  0
  5 41  1  1
  8 42  1  0
  8 43  1  0
  8 44  1  0
  9 45  1  0
  9 46  1  0
  9 47  1  0
 10 48  1  6
 11 49  1  0
 11 50  1  0
 12 51  1  0
 12 52  1  0
 14 53  1  0
 14 54  1  0
 14 55  1  0
 15 56  1  1
 16 57  1  0
 16 58  1  0
 17 59  1  0
 19 60  1  6
 20 61  1  0
 20 62  1  0
 21 63  1  0
 21 64  1  0
 22 65  1  6
 23 66  1  0
 25 67  1  0
 25 68  1  0
 25 69  1  0
 26 70  1  0
 26 71  1  0
 26 72  1  0
 28 73  1  0
 28 74  1  0
 28 75  1  0
 29 76  1  0
 29 77  1  0
 30 78  1  0
 30 79  1  0
 32 80  1  0
 32 81  1  0
 32 82  1  0
M  END
>  <meeko>  (13) 
{"is_sidechain": [false], "intermolecular_energy": 2.731, "internal_energy": -0.839}

$$$$
EPH_relaxed_0001_pdb2pqr_Repair_148_r2_0001_out
     RDKit          3D

 82 86  0  0  0  0  0  0  0  0999 V2000
    5.1420   15.3260   -1.8830 C   0  0  0  0  0  0  0  0  0  0  0  0
    3.9780   16.2660   -1.5580 C   0  0  2  0  0  0  0  0  0  0  0  0
    4.3400   17.2790   -0.4540 C   0  0  0  0  0  0  0  0  0  0  0  0
    3.8780   18.7080   -0.7530 C   0  0  0  0  0  0  0  0  0  0  0  0
    2.3830   18.8150   -0.7660 C   0  0  2  0  0  0  0  0  0  0  0  0
    1.8790   20.1440   -0.9510 O   0  0  0  0  0  0  0  0  0  0  0  0
    1.5850   19.5250    0.3120 C   0  0  0  0  0  0  0  0  0  0  0  0
    2.2580   20.1740    1.4800 C   0  0  0  0  0  0  0  0  0  0  0  0
    0.1420   19.1670    0.4860 C   0  0  0  0  0  0  0  0  0  0  0  0
    2.7560   15.4560   -1.1410 C   0  0  1  0  0  0  0  0  0  0  0  0
    1.5800   16.3500   -0.6670 C   0  0  0  0  0  0  0  0  0  0  0  0
    0.2740   15.6460   -1.1170 C   0  0  0  0  0  0  0  0  0  0  0  0
    0.7200   14.2250   -1.5350 C   0  0  1  0  0  0  0  0  0  0  0  0
    0.8360   13.4310   -0.1960 C   0  0  0  0  0  0  0  0  0  0  0  0
   -0.1950   13.4880   -2.5660 C   0  0  2  0  0  0  0  0  0  0  0  0
   -1.6290   13.2090   -2.0830 C   0  0  0  0  0  0  0  0  0  0  0  0
   -1.8260   11.8990   -1.3960 C   0  0  0  0  0  0  0  0  0  0  0  0
   -0.9670   10.8630   -1.4240 C   0  0  0  0  0  0  0  0  0  0  0  0
    0.3030   10.9170   -2.2840 C   0  0  1  0  0  0  0  0  0  0  0  0
    0.4500    9.5900   -3.0740 C   0  0  0  0  0  0  0  0  0  0  0  0
    0.4090    8.3630   -2.1690 C   0  0  0  0  0  0  0  0  0  0  0  0
   -0.8930    8.3140   -1.3740 C   0  0  2  0  0  0  0  0  0  0  0  0
   -1.9790    8.0970   -2.2810 O   0  0  0  0  0  0  0  0  0  0  0  0
   -1.1540    9.6020   -0.5450 C   0  0  0  0  0  0  0  0  0  0  0  0
   -0.1490    9.6760    0.6310 C   0  0  0  0  0  0  0  0  0  0  0  0
   -2.5630    9.4810    0.0950 C   0  0  0  0  0  0  0  0  0  0  0  0
    0.4600   12.1990   -3.2090 C   0  0  1  0  0  0  0  0  0  0  0  0
   -0.2640   11.9640   -4.5710 C   0  0  0  0  0  0  0  0  0  0  0  0
    1.9840   12.4070   -3.5460 C   0  0  0  0  0  0  0  0  0  0  0  0
    2.8080   13.2440   -2.5500 C   0  0  0  0  0  0  0  0  0  0  0  0
    2.0960   14.5600   -2.2190 C   0  0  2  0  0  0  0  0  0  0  0  0
    1.9850   15.3900   -3.5430 C   0  0  0  0  0  0  0  0  0  0  0  0
    5.5920   14.9626   -0.9474 H   0  0  0  0  0  0  0  0  0  0  0  0
    4.7708   14.4713   -2.4676 H   0  0  0  0  0  0  0  0  0  0  0  0
    5.8994   15.8688   -2.4676 H   0  0  0  0  0  0  0  0  0  0  0  0
    3.7513   16.8384   -2.4696 H   0  0  0  0  0  0  0  0  0  0  0  0
    3.8701   16.9516    0.4851 H   0  0  0  0  0  0  0  0  0  0  0  0
    5.4378   17.3036   -0.3883 H   0  0  0  0  0  0  0  0  0  0  0  0
    4.2770   19.3810    0.0202 H   0  0  0  0  0  0  0  0  0  0  0  0
    4.2509   18.9880   -1.7493 H   0  0  0  0  0  0  0  0  0  0  0  0
    2.2923   17.8137   -1.2123 H   0  0  0  0  0  0  0  0  0  0  0  0
    1.8401   19.7710    2.4143 H   0  0  0  0  0  0  0  0  0  0  0  0
    3.3378   19.9676    1.4422 H   0  0  0  0  0  0  0  0  0  0  0  0
    2.0909   21.2606    1.4422 H   0  0  0  0  0  0  0  0  0  0  0  0
   -0.0945   19.1083    1.5587 H   0  0  0  0  0  0  0  0  0  0  0  0
   -0.4862   19.9365    0.0136 H   0  0  0  0  0  0  0  0  0  0  0  0
   -0.0537   18.1931    0.0136 H   0  0  0  0  0  0  0  0  0  0  0  0
    3.2076   14.8306   -0.3568 H   0  0  0  0  0  0  0  0  0  0  0  0
    1.5981   16.4507    0.4282 H   0  0  0  0  0  0  0  0  0  0  0  0
    1.6530   17.3598   -1.0971 H   0  0  0  0  0  0  0  0  0  0  0  0
   -0.4470   15.5983   -0.2876 H   0  0  0  0  0  0  0  0  0  0  0  0
   -0.2284   16.1828   -1.9352 H   0  0  0  0  0  0  0  0  0  0  0  0
    0.7346   14.1247    0.6516 H   0  0  0  0  0  0  0  0  0  0  0  0
    0.0388   12.6745   -0.1480 H   0  0  0  0  0  0  0  0  0  0  0  0
    1.8163   12.9342   -0.1480 H   0  0  0  0  0  0  0  0  0  0  0  0
   -0.2905   14.2320   -3.3706 H   0  0  0  0  0  0  0  0  0  0  0  0
   -1.9127   14.0071   -1.3811 H   0  0  0  0  0  0  0  0  0  0  0  0
   -2.2540   13.1756   -2.9876 H   0  0  0  0  0  0  0  0  0  0  0  0
   -2.7523   11.7688   -0.8172 H   0  0  0  0  0  0  0  0  0  0  0  0
    1.1419   11.0276   -1.5811 H   0  0  0  0  0  0  0  0  0  0  0  0
   -0.3724    9.5195   -3.8011 H   0  0  0  0  0  0  0  0  0  0  0  0
    1.4306    9.6049   -3.5722 H   0  0  0  0  0  0  0  0  0  0  0  0
    0.4873    7.4568   -2.7876 H   0  0  0  0  0  0  0  0  0  0  0  0
    1.2498    8.4203   -1.4620 H   0  0  0  0  0  0  0  0  0  0  0  0
   -0.8074    7.4888   -0.6517 H   0  0  0  0  0  0  0  0  0  0  0  0
   -2.1970    7.1500   -2.2580 H   0  0  0  0  0  0  0  0  0  0  0  0
   -0.6964    9.6357    1.5842 H   0  0  0  0  0  0  0  0  0  0  0  0
    0.5476    8.8267    0.5720 H   0  0  0  0  0  0  0  0  0  0  0  0
    0.4157   10.6182    0.5720 H   0  0  0  0  0  0  0  0  0  0  0  0
   -2.4698    9.4890    1.1910 H   0  0  0  0  0  0  0  0  0  0  0  0
   -3.1857   10.3290   -0.2262 H   0  0  0  0  0  0  0  0  0  0  0  0
   -3.0320    8.5393   -0.2262 H   0  0  0  0  0  0  0  0  0  0  0  0
   -1.2952   11.6293   -4.3851 H   0  0  0  0  0  0  0  0  0  0  0  0
   -0.2809   12.9028   -5.1440 H   0  0  0  0  0  0  0  0  0  0  0  0
    0.2737   11.1943   -5.1440 H   0  0  0  0  0  0  0  0  0  0  0  0
    2.4494   11.4123   -3.6095 H   0  0  0  0  0  0  0  0  0  0  0  0
    1.9953   12.9823   -4.4835 H   0  0  0  0  0  0  0  0  0  0  0  0
    2.9469   12.6671   -1.6238 H   0  0  0  0  0  0  0  0  0  0  0  0
    3.7806   13.4769   -3.0080 H   0  0  0  0  0  0  0  0  0  0  0  0
    1.8428   16.4530   -3.2985 H   0  0  0  0  0  0  0  0  0  0  0  0
    2.9073   15.2689   -4.1301 H   0  0  0  0  0  0  0  0  0  0  0  0
    1.1269   15.0308   -4.1301 H   0  0  0  0  0  0  0  0  0  0  0  0
  1  2  1  0
  2  3  1  0
  3  4  1  0
  4  5  1  0
  5  6  1  0
  6  7  1  0
  7  8  1  0
  7  9  1  0
  2 10  1  0
 10 11  1  0
 11 12  1  0
 12 13  1  0
 13 14  1  1
 13 15  1  0
 15 16  1  0
 16 17  1  0
 17 18  2  0
 18 19  1  0
 19 20  1  0
 20 21  1  0
 21 22  1  0
 22 23  1  0
 22 24  1  0
 24 25  1  0
 24 26  1  0
 19 27  1  0
 27 28  1  6
 27 29  1  0
 29 30  1  0
 30 31  1  0
 31 32  1  6
  7  5  1  0
 31 10  1  0
 31 13  1  0
 27 15  1  0
 24 18  1  0
  1 33  1  0
  1 34  1  0
  1 35  1  0
  2 36  1  6
  3 37  1  0
  3 38  1  0
  4 39  1  0
  4 40  1  0
  5 41  1  6
  8 42  1  0
  8 43  1  0
  8 44  1  0
  9 45  1  0
  9 46  1  0
  9 47  1  0
 10 48  1  1
 11 49  1  0
 11 50  1  0
 12 51  1  0
 12 52  1  0
 14 53  1  0
 14 54  1  0
 14 55  1  0
 15 56  1  6
 16 57  1  0
 16 58  1  0
 17 59  1  0
 19 60  1  1
 20 61  1  0
 20 62  1  0
 21 63  1  0
 21 64  1  0
 22 65  1  1
 23 66  1  0
 25 67  1  0
 25 68  1  0
 25 69  1  0
 26 70  1  0
 26 71  1  0
 26 72  1  0
 28 73  1  0
 28 74  1  0
 28 75  1  0
 29 76  1  0
 29 77  1  0
 30 78  1  0
 30 79  1  0
 32 80  1  0
 32 81  1  0
 32 82  1  0
M  END
>  <meeko>  (14) 
{"is_sidechain": [false], "intermolecular_energy": 2.731, "internal_energy": -0.839}

$$$$
EPH_relaxed_0001_pdb2pqr_Repair_148_r2_0001_out
     RDKit          3D

 82 86  0  0  0  0  0  0  0  0999 V2000
   -0.1930    8.4080   -3.3140 C   0  0  0  0  0  0  0  0  0  0  0  0
   -0.7280    8.8430   -1.9470 C   0  0  2  0  0  0  0  0  0  0  0  0
   -2.0880    8.1920   -1.6220 C   0  0  0  0  0  0  0  0  0  0  0  0
   -2.6080    7.2680   -2.7270 C   0  0  0  0  0  0  0  0  0  0  0  0
   -4.0820    7.4330   -2.9390 C   0  0  2  0  0  0  0  0  0  0  0  0
   -4.8780    7.2710   -1.7580 O   0  0  0  0  0  0  0  0  0  0  0  0
   -5.0790    6.2980   -2.7960 C   0  0  0  0  0  0  0  0  0  0  0  0
   -4.6410    4.9150   -2.4270 C   0  0  0  0  0  0  0  0  0  0  0  0
   -6.4030    6.4170   -3.4850 C   0  0  0  0  0  0  0  0  0  0  0  0
   -0.8530   10.3610   -1.8970 C   0  0  1  0  0  0  0  0  0  0  0  0
   -2.1840   10.8300   -1.2510 C   0  0  0  0  0  0  0  0  0  0  0  0
   -1.8680   12.1330   -0.4720 C   0  0  0  0  0  0  0  0  0  0  0  0
   -0.4610   12.5490   -0.9620 C   0  0  1  0  0  0  0  0  0  0  0  0
   -0.7080   13.2730   -2.3220 C   0  0  0  0  0  0  0  0  0  0  0  0
    0.3780   13.4320    0.0180 C   0  0  2  0  0  0  0  0  0  0  0  0
   -0.2320   14.8070    0.3430 C   0  0  0  0  0  0  0  0  0  0  0  0
    0.1800   15.9180   -0.5650 C   0  0  0  0  0  0  0  0  0  0  0  0
    1.2190   15.8850   -1.4200 C   0  0  0  0  0  0  0  0  0  0  0  0
    2.1650   14.6780   -1.4640 C   0  0  1  0  0  0  0  0  0  0  0  0
    3.6350   15.1720   -1.4770 C   0  0  0  0  0  0  0  0  0  0  0  0
    3.9080   16.1680   -2.6000 C   0  0  0  0  0  0  0  0  0  0  0  0
    2.9880   17.3810   -2.4880 C   0  0  2  0  0  0  0  0  0  0  0  0
    3.3270   18.1100   -1.3040 O   0  0  0  0  0  0  0  0  0  0  0  0
    1.4800   17.0060   -2.4560 C   0  0  0  0  0  0  0  0  0  0  0  0
    1.0420   16.4910   -3.8500 C   0  0  0  0  0  0  0  0  0  0  0  0
    0.6700   18.3050   -2.1990 C   0  0  0  0  0  0  0  0  0  0  0  0
    1.9080   13.5550   -0.3690 C   0  0  1  0  0  0  0  0  0  0  0  0
    2.6720   13.9080    0.9440 C   0  0  0  0  0  0  0  0  0  0  0  0
    2.5070   12.1920   -0.8800 C   0  0  0  0  0  0  0  0  0  0  0  0
    1.5880   11.3090   -1.7440 C   0  0  0  0  0  0  0  0  0  0  0  0
    0.2160   11.1360   -1.0850 C   0  0  2  0  0  0  0  0  0  0  0  0
    0.4300   10.3900    0.2760 C   0  0  0  0  0  0  0  0  0  0  0  0
    0.6536    7.7197   -3.1743 H   0  0  0  0  0  0  0  0  0  0  0  0
   -0.9907    7.8990   -3.8749 H   0  0  0  0  0  0  0  0  0  0  0  0
    0.1425    9.2928   -3.8749 H   0  0  0  0  0  0  0  0  0  0  0  0
   -0.0089    8.5036   -1.1869 H   0  0  0  0  0  0  0  0  0  0  0  0
   -1.9794    7.6030   -0.6993 H   0  0  0  0  0  0  0  0  0  0  0  0
   -2.8178    9.0081   -1.5156 H   0  0  0  0  0  0  0  0  0  0  0  0
   -2.0843    7.5042   -3.6650 H   0  0  0  0  0  0  0  0  0  0  0  0
   -2.4197    6.2282   -2.4215 H   0  0  0  0  0  0  0  0  0  0  0  0
   -3.9093    8.1670   -3.7399 H   0  0  0  0  0  0  0  0  0  0  0  0
   -4.6109    4.8200   -1.3315 H   0  0  0  0  0  0  0  0  0  0  0  0
   -5.3513    4.1832   -2.8392 H   0  0  0  0  0  0  0  0  0  0  0  0
   -3.6389    4.7255   -2.8392 H   0  0  0  0  0  0  0  0  0  0  0  0
   -7.2025    6.4889   -2.7330 H   0  0  0  0  0  0  0  0  0  0  0  0
   -6.4092    7.3193   -4.1141 H   0  0  0  0  0  0  0  0  0  0  0  0
   -6.5700    5.5302   -4.1141 H   0  0  0  0  0  0  0  0  0  0  0  0
   -0.7516   10.5900   -2.9681 H   0  0  0  0  0  0  0  0  0  0  0  0
   -2.9346   11.0272   -2.0305 H   0  0  0  0  0  0  0  0  0  0  0  0
   -2.5916   10.0583   -0.5814 H   0  0  0  0  0  0  0  0  0  0  0  0
   -2.6070   12.9137   -0.7051 H   0  0  0  0  0  0  0  0  0  0  0  0
   -1.9039   11.9867    0.6176 H   0  0  0  0  0  0  0  0  0  0  0  0
   -1.0579   14.2986   -2.1331 H   0  0  0  0  0  0  0  0  0  0  0  0
    0.2299   13.3054   -2.8958 H   0  0  0  0  0  0  0  0  0  0  0  0
   -1.4701   12.7254   -2.8958 H   0  0  0  0  0  0  0  0  0  0  0  0
    0.3305   12.8559    0.9539 H   0  0  0  0  0  0  0  0  0  0  0  0
   -1.3268   14.7140    0.2912 H   0  0  0  0  0  0  0  0  0  0  0  0
    0.1404   15.0767    1.3423 H   0  0  0  0  0  0  0  0  0  0  0  0
   -0.4161   16.8419   -0.5326 H   0  0  0  0  0  0  0  0  0  0  0  0
    1.9406   14.1503   -2.4027 H   0  0  0  0  0  0  0  0  0  0  0  0
    3.8521   15.6579   -0.5143 H   0  0  0  0  0  0  0  0  0  0  0  0
    4.2798   14.2965   -1.6434 H   0  0  0  0  0  0  0  0  0  0  0  0
    4.9541   16.5025   -2.5383 H   0  0  0  0  0  0  0  0  0  0  0  0
    3.7195   15.6717   -3.5634 H   0  0  0  0  0  0  0  0  0  0  0  0
    3.1400   17.9935   -3.3890 H   0  0  0  0  0  0  0  0  0  0  0  0
    3.0040   17.6000   -0.5420 H   0  0  0  0  0  0  0  0  0  0  0  0
    0.3338   15.6583   -3.7274 H   0  0  0  0  0  0  0  0  0  0  0  0
    0.5564   17.3064   -4.4062 H   0  0  0  0  0  0  0  0  0  0  0  0
    1.9248   16.1427   -4.4062 H   0  0  0  0  0  0  0  0  0  0  0  0
    0.5695   18.4661   -1.1155 H   0  0  0  0  0  0  0  0  0  0  0  0
    1.1954   19.1599   -2.6497 H   0  0  0  0  0  0  0  0  0  0  0  0
   -0.3289   18.2095   -2.6497 H   0  0  0  0  0  0  0  0  0  0  0  0
    2.0590   13.6248    1.8123 H   0  0  0  0  0  0  0  0  0  0  0  0
    3.6246   13.3588    0.9729 H   0  0  0  0  0  0  0  0  0  0  0  0
    2.8712   14.9894    0.9729 H   0  0  0  0  0  0  0  0  0  0  0  0
    3.4014   12.4247   -1.4765 H   0  0  0  0  0  0  0  0  0  0  0  0
    2.6988   11.6036    0.0294 H   0  0  0  0  0  0  0  0  0  0  0  0
    1.4572   11.7813   -2.7288 H   0  0  0  0  0  0  0  0  0  0  0  0
    2.0532   10.3180   -1.8510 H   0  0  0  0  0  0  0  0  0  0  0  0
    0.2317   11.0814    1.1082 H   0  0  0  0  0  0  0  0  0  0  0  0
   -0.2590    9.5348    0.3377 H   0  0  0  0  0  0  0  0  0  0  0  0
    1.4676   10.0301    0.3377 H   0  0  0  0  0  0  0  0  0  0  0  0
  1  2  1  0
  2  3  1  0
  3  4  1  0
  4  5  1  0
  5  6  1  0
  6  7  1  0
  7  8  1  0
  7  9  1  0
  2 10  1  0
 10 11  1  0
 11 12  1  0
 12 13  1  0
 13 14  1  6
 13 15  1  0
 15 16  1  0
 16 17  1  0
 17 18  2  0
 18 19  1  0
 19 20  1  0
 20 21  1  0
 21 22  1  0
 22 23  1  0
 22 24  1  0
 24 25  1  0
 24 26  1  0
 19 27  1  0
 27 28  1  1
 27 29  1  0
 29 30  1  0
 30 31  1  0
 31 32  1  1
  7  5  1  0
 31 10  1  0
 31 13  1  0
 27 15  1  0
 24 18  1  0
  1 33  1  0
  1 34  1  0
  1 35  1  0
  2 36  1  1
  3 37  1  0
  3 38  1  0
  4 39  1  0
  4 40  1  0
  5 41  1  6
  8 42  1  0
  8 43  1  0
  8 44  1  0
  9 45  1  0
  9 46  1  0
  9 47  1  0
 10 48  1  6
 11 49  1  0
 11 50  1  0
 12 51  1  0
 12 52  1  0
 14 53  1  0
 14 54  1  0
 14 55  1  0
 15 56  1  1
 16 57  1  0
 16 58  1  0
 17 59  1  0
 19 60  1  6
 20 61  1  0
 20 62  1  0
 21 63  1  0
 21 64  1  0
 22 65  1  6
 23 66  1  0
 25 67  1  0
 25 68  1  0
 25 69  1  0
 26 70  1  0
 26 71  1  0
 26 72  1  0
 28 73  1  0
 28 74  1  0
 28 75  1  0
 29 76  1  0
 29 77  1  0
 30 78  1  0
 30 79  1  0
 32 80  1  0
 32 81  1  0
 32 82  1  0
M  END
>  <meeko>  (15) 
{"is_sidechain": [false], "intermolecular_energy": 2.731, "internal_energy": -0.839}

$$$$
EPH_relaxed_0001_pdb2pqr_Repair_148_r2_0001_out
     RDKit          3D

 82 86  0  0  0  0  0  0  0  0999 V2000
   -0.3190   10.4230   -2.2210 C   0  0  0  0  0  0  0  0  0  0  0  0
    0.6970   10.2210   -1.0930 C   0  0  2  0  0  0  0  0  0  0  0  0
    0.0140   10.0100    0.2730 C   0  0  0  0  0  0  0  0  0  0  0  0
    0.7800   10.6280    1.4460 C   0  0  0  0  0  0  0  0  0  0  0  0
   -0.0220   11.6900    2.1350 C   0  0  2  0  0  0  0  0  0  0  0  0
    0.5290   13.0100    2.0440 O   0  0  0  0  0  0  0  0  0  0  0  0
    0.4620   12.4400    3.3610 C   0  0  0  0  0  0  0  0  0  0  0  0
    1.7990   12.1580    3.9720 C   0  0  0  0  0  0  0  0  0  0  0  0
   -0.5530   13.0910    4.2480 C   0  0  0  0  0  0  0  0  0  0  0  0
    1.6410   11.4160   -1.0250 C   0  0  1  0  0  0  0  0  0  0  0  0
    2.9970   11.1470   -1.7300 C   0  0  0  0  0  0  0  0  0  0  0  0
    3.4430   12.4870   -2.3690 C   0  0  0  0  0  0  0  0  0  0  0  0
    2.5120   13.5490   -1.7380 C   0  0  1  0  0  0  0  0  0  0  0  0
    3.1430   13.8580   -0.3440 C   0  0  0  0  0  0  0  0  0  0  0  0
    2.2850   14.8520   -2.5710 C   0  0  2  0  0  0  0  0  0  0  0  0
    3.5490   15.6920   -2.8250 C   0  0  0  0  0  0  0  0  0  0  0  0
    3.8390   16.7350   -1.7970 C   0  0  0  0  0  0  0  0  0  0  0  0
    2.9710   17.1810   -0.8690 C   0  0  0  0  0  0  0  0  0  0  0  0
    1.5160   16.6960   -0.8530 C   0  0  1  0  0  0  0  0  0  0  0  0
    0.5670   17.9110   -0.6840 C   0  0  0  0  0  0  0  0  0  0  0  0
    0.9130   18.7580    0.5370 C   0  0  0  0  0  0  0  0  0  0  0  0
    2.3490   19.2700    0.4570 C   0  0  2  0  0  0  0  0  0  0  0  0
    2.4490   20.1940   -0.6310 O   0  0  0  0  0  0  0  0  0  0  0  0
    3.3950   18.1340    0.2750 C   0  0  0  0  0  0  0  0  0  0  0  0
    3.4990   17.3090    1.5820 C   0  0  0  0  0  0  0  0  0  0  0  0
    4.7840   18.7940    0.0670 C   0  0  0  0  0  0  0  0  0  0  0  0
    1.0880   15.7500   -2.0570 C   0  0  1  0  0  0  0  0  0  0  0  0
    0.6230   16.6110   -3.2710 C   0  0  0  0  0  0  0  0  0  0  0  0
   -0.1580   14.8920   -1.6180 C   0  0  0  0  0  0  0  0  0  0  0  0
    0.1330   13.5580   -0.9050 C   0  0  0  0  0  0  0  0  0  0  0  0
    1.1670   12.7360   -1.6820 C   0  0  2  0  0  0  0  0  0  0  0  0
    0.5510   12.3910   -3.0800 C   0  0  0  0  0  0  0  0  0  0  0  0
   -1.3114   10.6203   -1.7896 H   0  0  0  0  0  0  0  0  0  0  0  0
   -0.0125   11.2778   -2.8418 H   0  0  0  0  0  0  0  0  0  0  0  0
   -0.3628    9.5160   -2.8418 H   0  0  0  0  0  0  0  0  0  0  0  0
    1.2677    9.3085   -1.3204 H   0  0  0  0  0  0  0  0  0  0  0  0
   -0.9873   10.4638    0.2344 H   0  0  0  0  0  0  0  0  0  0  0  0
   -0.0236    8.9249    0.4495 H   0  0  0  0  0  0  0  0  0  0  0  0
    1.0205    9.8365    2.1710 H   0  0  0  0  0  0  0  0  0  0  0  0
    1.6954   11.0925    1.0506 H   0  0  0  0  0  0  0  0  0  0  0  0
   -0.9589   11.1554    1.9193 H   0  0  0  0  0  0  0  0  0  0  0  0
    1.7123   12.1763    5.0684 H   0  0  0  0  0  0  0  0  0  0  0  0
    2.1483   11.1664    3.6483 H   0  0  0  0  0  0  0  0  0  0  0  0
    2.5190   12.9240    3.6483 H   0  0  0  0  0  0  0  0  0  0  0  0
   -0.2843   12.9187    5.3007 H   0  0  0  0  0  0  0  0  0  0  0  0
   -0.5754   14.1724    4.0476 H   0  0  0  0  0  0  0  0  0  0  0  0
   -1.5451   12.6603    4.0476 H   0  0  0  0  0  0  0  0  0  0  0  0
    1.7019   11.5401    0.0663 H   0  0  0  0  0  0  0  0  0  0  0  0
    3.7446   10.8097   -0.9970 H   0  0  0  0  0  0  0  0  0  0  0  0
    2.8964   10.3604   -2.4923 H   0  0  0  0  0  0  0  0  0  0  0  0
    4.4949   12.7007   -2.1287 H   0  0  0  0  0  0  0  0  0  0  0  0
    3.3725   12.4697   -3.4666 H   0  0  0  0  0  0  0  0  0  0  0  0
    2.4595   13.5233    0.4502 H   0  0  0  0  0  0  0  0  0  0  0  0
    4.1021   13.3276   -0.2500 H   0  0  0  0  0  0  0  0  0  0  0  0
    3.3121   14.9409   -0.2500 H   0  0  0  0  0  0  0  0  0  0  0  0
    1.9872   14.4554   -3.5528 H   0  0  0  0  0  0  0  0  0  0  0  0
    4.4091   15.0076   -2.8668 H   0  0  0  0  0  0  0  0  0  0  0  0
    3.3705   16.2334   -3.7657 H   0  0  0  0  0  0  0  0  0  0  0  0
    4.8466   17.1764   -1.7976 H   0  0  0  0  0  0  0  0  0  0  0  0
    1.4268   16.0293    0.0174 H   0  0  0  0  0  0  0  0  0  0  0  0
    0.6382   18.5417   -1.5824 H   0  0  0  0  0  0  0  0  0  0  0  0
   -0.4520   17.5217   -0.5425 H   0  0  0  0  0  0  0  0  0  0  0  0
    0.2270   19.6165    0.5857 H   0  0  0  0  0  0  0  0  0  0  0  0
    0.8126   18.1337    1.4371 H   0  0  0  0  0  0  0  0  0  0  0  0
    2.5791   19.7582    1.4155 H   0  0  0  0  0  0  0  0  0  0  0  0
    2.5660   19.6780   -1.4460 H   0  0  0  0  0  0  0  0  0  0  0  0
    3.4142   17.9819    2.4481 H   0  0  0  0  0  0  0  0  0  0  0  0
    2.6872   16.5673    1.6130 H   0  0  0  0  0  0  0  0  0  0  0  0
    4.4694   16.7920    1.6130 H   0  0  0  0  0  0  0  0  0  0  0  0
    5.2377   19.0096    1.0456 H   0  0  0  0  0  0  0  0  0  0  0  0
    5.4349   18.1089   -0.4960 H   0  0  0  0  0  0  0  0  0  0  0  0
    4.6640   19.7313   -0.4960 H   0  0  0  0  0  0  0  0  0  0  0  0
    0.1300   17.5239   -2.9056 H   0  0  0  0  0  0  0  0  0  0  0  0
    1.4958   16.8850   -3.8819 H   0  0  0  0  0  0  0  0  0  0  0  0
   -0.0848   16.0314   -3.8819 H   0  0  0  0  0  0  0  0  0  0  0  0
   -0.7629   15.5083   -0.9366 H   0  0  0  0  0  0  0  0  0  0  0  0
   -0.6600   14.6131   -2.5562 H   0  0  0  0  0  0  0  0  0  0  0  0
    0.5219   13.7658    0.1028 H   0  0  0  0  0  0  0  0  0  0  0  0
   -0.8014   12.9807   -0.8452 H   0  0  0  0  0  0  0  0  0  0  0  0
   -0.4009   11.8579   -2.9398 H   0  0  0  0  0  0  0  0  0  0  0  0
    0.3717   13.3200   -3.6411 H   0  0  0  0  0  0  0  0  0  0  0  0
    1.2495   11.7528   -3.6411 H   0  0  0  0  0  0  0  0  0  0  0  0
  1  2  1  0
  2  3  1  0
  3  4  1  0
  4  5  1  0
  5  6  1  0
  6  7  1  0
  7  8  1  0
  7  9  1  0
  2 10  1  0
 10 11  1  0
 11 12  1  0
 12 13  1  0
 13 14  1  1
 13 15  1  0
 15 16  1  0
 16 17  1  0
 17 18  2  0
 18 19  1  0
 19 20  1  0
 20 21  1  0
 21 22  1  0
 22 23  1  0
 22 24  1  0
 24 25  1  0
 24 26  1  0
 19 27  1  0
 27 28  1  6
 27 29  1  0
 29 30  1  0
 30 31  1  0
 31 32  1  6
  7  5  1  0
 31 10  1  0
 31 13  1  0
 27 15  1  0
 24 18  1  0
  1 33  1  0
  1 34  1  0
  1 35  1  0
  2 36  1  6
  3 37  1  0
  3 38  1  0
  4 39  1  0
  4 40  1  0
  5 41  1  1
  8 42  1  0
  8 43  1  0
  8 44  1  0
  9 45  1  0
  9 46  1  0
  9 47  1  0
 10 48  1  1
 11 49  1  0
 11 50  1  0
 12 51  1  0
 12 52  1  0
 14 53  1  0
 14 54  1  0
 14 55  1  0
 15 56  1  6
 16 57  1  0
 16 58  1  0
 17 59  1  0
 19 60  1  1
 20 61  1  0
 20 62  1  0
 21 63  1  0
 21 64  1  0
 22 65  1  1
 23 66  1  0
 25 67  1  0
 25 68  1  0
 25 69  1  0
 26 70  1  0
 26 71  1  0
 26 72  1  0
 28 73  1  0
 28 74  1  0
 28 75  1  0
 29 76  1  0
 29 77  1  0
 30 78  1  0
 30 79  1  0
 32 80  1  0
 32 81  1  0
 32 82  1  0
M  END
>  <meeko>  (16) 
{"is_sidechain": [false], "intermolecular_energy": 2.731, "internal_energy": -0.839}

$$$$
EPH_relaxed_0001_pdb2pqr_Repair_148_r2_0001_out
     RDKit          3D

 82 86  0  0  0  0  0  0  0  0999 V2000
    0.5850   10.4490   -3.0370 C   0  0  0  0  0  0  0  0  0  0  0  0
    1.8810   10.2460   -2.2470 C   0  0  2  0  0  0  0  0  0  0  0  0
    1.6400    9.5110   -0.9140 C   0  0  0  0  0  0  0  0  0  0  0  0
    0.5820   10.1750   -0.0270 C   0  0  0  0  0  0  0  0  0  0  0  0
   -0.6890    9.3820    0.0080 C   0  0  2  0  0  0  0  0  0  0  0  0
   -1.1810    8.9810   -1.2770 O   0  0  0  0  0  0  0  0  0  0  0  0
   -2.0090    9.8920   -0.5370 C   0  0  0  0  0  0  0  0  0  0  0  0
   -2.1250   11.2500   -1.1570 C   0  0  0  0  0  0  0  0  0  0  0  0
   -3.2770    9.2790   -0.0320 C   0  0  0  0  0  0  0  0  0  0  0  0
    2.5470   11.5920   -1.9870 C   0  0  1  0  0  0  0  0  0  0  0  0
    3.9260   11.7210   -2.6870 C   0  0  0  0  0  0  0  0  0  0  0  0
    4.0710   13.2030   -3.1200 C   0  0  0  0  0  0  0  0  0  0  0  0
    2.9370   13.9410   -2.3710 C   0  0  1  0  0  0  0  0  0  0  0  0
    3.4930   14.1760   -0.9320 C   0  0  0  0  0  0  0  0  0  0  0  0
    2.4320   15.2710   -3.0200 C   0  0  2  0  0  0  0  0  0  0  0  0
    3.4850   16.3890   -3.1200 C   0  0  0  0  0  0  0  0  0  0  0  0
    3.5490   17.3120   -1.9490 C   0  0  0  0  0  0  0  0  0  0  0  0
    2.6100   17.4260   -0.9910 C   0  0  0  0  0  0  0  0  0  0  0  0
    1.2930   16.6450   -1.0820 C   0  0  1  0  0  0  0  0  0  0  0  0
    0.1060   17.5940   -0.7690 C   0  0  0  0  0  0  0  0  0  0  0  0
    0.2670   18.3120    0.5670 C   0  0  0  0  0  0  0  0  0  0  0  0
    1.5590   19.1240    0.5970 C   0  0  2  0  0  0  0  0  0  0  0  0
    1.4540   20.1930   -0.3470 O   0  0  0  0  0  0  0  0  0  0  0  0
    2.8230   18.2750    0.2870 C   0  0  0  0  0  0  0  0  0  0  0  0
    3.1080   17.3140    1.4670 C   0  0  0  0  0  0  0  0  0  0  0  0
    4.0380   19.2390    0.2090 C   0  0  0  0  0  0  0  0  0  0  0  0
    1.0720   15.8110   -2.4170 C   0  0  1  0  0  0  0  0  0  0  0  0
    0.4290   16.7170   -3.5100 C   0  0  0  0  0  0  0  0  0  0  0  0
    0.0420   14.6540   -2.1360 C   0  0  0  0  0  0  0  0  0  0  0  0
    0.6150   13.3250   -1.6090 C   0  0  0  0  0  0  0  0  0  0  0  0
    1.7980   12.8610   -2.4650 C   0  0  2  0  0  0  0  0  0  0  0  0
    1.2640   12.5950   -3.9140 C   0  0  0  0  0  0  0  0  0  0  0  0
   -0.2539   10.5804   -2.3377 H   0  0  0  0  0  0  0  0  0  0  0  0
    0.6780   11.3435   -3.6704 H   0  0  0  0  0  0  0  0  0  0  0  0
    0.4000    9.5689   -3.6704 H   0  0  0  0  0  0  0  0  0  0  0  0
    2.5442    9.6143   -2.8562 H   0  0  0  0  0  0  0  0  0  0  0  0
    1.3117    8.4852   -1.1375 H   0  0  0  0  0  0  0  0  0  0  0  0
    2.5882    9.5363   -0.3570 H   0  0  0  0  0  0  0  0  0  0  0  0
    0.9771   10.2604    0.9960 H   0  0  0  0  0  0  0  0  0  0  0  0
    0.3561   11.1665   -0.4465 H   0  0  0  0  0  0  0  0  0  0  0  0
   -0.4124    8.9388    0.9760 H   0  0  0  0  0  0  0  0  0  0  0  0
   -2.1900   12.0104   -0.3648 H   0  0  0  0  0  0  0  0  0  0  0  0
   -1.2402   11.4451   -1.7808 H   0  0  0  0  0  0  0  0  0  0  0  0
   -3.0300   11.2922   -1.7808 H   0  0  0  0  0  0  0  0  0  0  0  0
   -3.2726    9.2811    1.0680 H   0  0  0  0  0  0  0  0  0  0  0  0
   -4.1362    9.8612   -0.3964 H   0  0  0  0  0  0  0  0  0  0  0  0
   -3.3544    8.2440   -0.3964 H   0  0  0  0  0  0  0  0  0  0  0  0
    2.5846   11.5694   -0.8879 H   0  0  0  0  0  0  0  0  0  0  0  0
    4.7319   11.4497   -1.9892 H   0  0  0  0  0  0  0  0  0  0  0  0
    3.9932   11.0477   -3.5543 H   0  0  0  0  0  0  0  0  0  0  0  0
    5.0536   13.5995   -2.8247 H   0  0  0  0  0  0  0  0  0  0  0  0
    4.0007   13.3277   -4.2106 H   0  0  0  0  0  0  0  0  0  0  0  0
    2.7427   13.8589   -0.1927 H   0  0  0  0  0  0  0  0  0  0  0  0
    4.4138   13.5901   -0.7945 H   0  0  0  0  0  0  0  0  0  0  0  0
    3.7144   15.2447   -0.7945 H   0  0  0  0  0  0  0  0  0  0  0  0
    2.2227   14.9636   -4.0552 H   0  0  0  0  0  0  0  0  0  0  0  0
    4.4719   15.9169   -3.2348 H   0  0  0  0  0  0  0  0  0  0  0  0
    3.1898   17.0086   -3.9796 H   0  0  0  0  0  0  0  0  0  0  0  0
    4.4384   17.9533   -1.8612 H   0  0  0  0  0  0  0  0  0  0  0  0
    1.3530   15.8570   -0.3169 H   0  0  0  0  0  0  0  0  0  0  0  0
    0.0367   18.3471   -1.5678 H   0  0  0  0  0  0  0  0  0  0  0  0
   -0.8051   16.9805   -0.7104 H   0  0  0  0  0  0  0  0  0  0  0  0
   -0.5871   18.9886    0.7174 H   0  0  0  0  0  0  0  0  0  0  0  0
    0.3066   17.5591    1.3680 H   0  0  0  0  0  0  0  0  0  0  0  0
    1.6829   19.5089    1.6200 H   0  0  0  0  0  0  0  0  0  0  0  0
    0.7220   20.7670   -0.0620 H   0  0  0  0  0  0  0  0  0  0  0  0
    2.9508   17.8442    2.4179 H   0  0  0  0  0  0  0  0  0  0  0  0
    2.4268   16.4522    1.4107 H   0  0  0  0  0  0  0  0  0  0  0  0
    4.1489   16.9629    1.4107 H   0  0  0  0  0  0  0  0  0  0  0  0
    4.3657   19.4990    1.2264 H   0  0  0  0  0  0  0  0  0  0  0  0
    4.8627   18.7468   -0.3273 H   0  0  0  0  0  0  0  0  0  0  0  0
    3.7462   20.1540   -0.3273 H   0  0  0  0  0  0  0  0  0  0  0  0
   -0.1432   17.5233   -3.0279 H   0  0  0  0  0  0  0  0  0  0  0  0
    1.2206   17.1534   -4.1368 H   0  0  0  0  0  0  0  0  0  0  0  0
   -0.2442   16.1138   -4.1368 H   0  0  0  0  0  0  0  0  0  0  0  0
   -0.6786   15.0238   -1.3917 H   0  0  0  0  0  0  0  0  0  0  0  0
   -0.3915   14.4108   -3.1173 H   0  0  0  0  0  0  0  0  0  0  0  0
    0.9541   13.4652   -0.5720 H   0  0  0  0  0  0  0  0  0  0  0  0
   -0.1737   12.5596   -1.6556 H   0  0  0  0  0  0  0  0  0  0  0  0
    0.2807   12.1052   -3.8582 H   0  0  0  0  0  0  0  0  0  0  0  0
    1.1678   13.5505   -4.4505 H   0  0  0  0  0  0  0  0  0  0  0  0
    1.9687   11.9426   -4.4505 H   0  0  0  0  0  0  0  0  0  0  0  0
  1  2  1  0
  2  3  1  0
  3  4  1  0
  4  5  1  0
  5  6  1  0
  6  7  1  0
  7  8  1  0
  7  9  1  0
  2 10  1  0
 10 11  1  0
 11 12  1  0
 12 13  1  0
 13 14  1  1
 13 15  1  0
 15 16  1  0
 16 17  1  0
 17 18  2  0
 18 19  1  0
 19 20  1  0
 20 21  1  0
 21 22  1  0
 22 23  1  0
 22 24  1  0
 24 25  1  0
 24 26  1  0
 19 27  1  0
 27 28  1  6
 27 29  1  0
 29 30  1  0
 30 31  1  0
 31 32  1  6
  7  5  1  0
 31 10  1  0
 31 13  1  0
 27 15  1  0
 24 18  1  0
  1 33  1  0
  1 34  1  0
  1 35  1  0
  2 36  1  6
  3 37  1  0
  3 38  1  0
  4 39  1  0
  4 40  1  0
  5 41  1  1
  8 42  1  0
  8 43  1  0
  8 44  1  0
  9 45  1  0
  9 46  1  0
  9 47  1  0
 10 48  1  1
 11 49  1  0
 11 50  1  0
 12 51  1  0
 12 52  1  0
 14 53  1  0
 14 54  1  0
 14 55  1  0
 15 56  1  6
 16 57  1  0
 16 58  1  0
 17 59  1  0
 19 60  1  1
 20 61  1  0
 20 62  1  0
 21 63  1  0
 21 64  1  0
 22 65  1  1
 23 66  1  0
 25 67  1  0
 25 68  1  0
 25 69  1  0
 26 70  1  0
 26 71  1  0
 26 72  1  0
 28 73  1  0
 28 74  1  0
 28 75  1  0
 29 76  1  0
 29 77  1  0
 30 78  1  0
 30 79  1  0
 32 80  1  0
 32 81  1  0
 32 82  1  0
M  END
>  <meeko>  (17) 
{"is_sidechain": [false], "intermolecular_energy": 2.731, "internal_energy": -0.839}

$$$$
EPH_relaxed_0001_pdb2pqr_Repair_148_r2_0001_out
     RDKit          3D

 82 86  0  0  0  0  0  0  0  0999 V2000
    0.2500    9.2770   -3.0520 C   0  0  0  0  0  0  0  0  0  0  0  0
    1.0680   10.4800   -3.5310 C   0  0  2  0  0  0  0  0  0  0  0  0
    2.5430   10.3920   -3.0910 C   0  0  0  0  0  0  0  0  0  0  0  0
    3.5360   10.8100   -4.1780 C   0  0  0  0  0  0  0  0  0  0  0  0
    4.9350   10.3910   -3.8430 C   0  0  2  0  0  0  0  0  0  0  0  0
    5.3660   10.7470   -2.5220 O   0  0  0  0  0  0  0  0  0  0  0  0
    6.0690   11.3720   -3.6090 C   0  0  0  0  0  0  0  0  0  0  0  0
    5.8540   12.8500   -3.7020 C   0  0  0  0  0  0  0  0  0  0  0  0
    7.4760   10.8900   -3.7720 C   0  0  0  0  0  0  0  0  0  0  0  0
    0.4450   11.7710   -3.0110 C   0  0  1  0  0  0  0  0  0  0  0  0
   -0.7860   11.5170   -2.1020 C   0  0  0  0  0  0  0  0  0  0  0  0
   -0.7700   12.6180   -1.0100 C   0  0  0  0  0  0  0  0  0  0  0  0
    0.2620   13.6530   -1.5150 C   0  0  1  0  0  0  0  0  0  0  0  0
   -0.5140   14.5190   -2.5550 C   0  0  0  0  0  0  0  0  0  0  0  0
    0.9450   14.5380   -0.4210 C   0  0  2  0  0  0  0  0  0  0  0  0
   -0.0100   15.4470    0.3720 C   0  0  0  0  0  0  0  0  0  0  0  0
   -0.2170   16.8100   -0.2010 C   0  0  0  0  0  0  0  0  0  0  0  0
    0.5510   17.3870   -1.1440 C   0  0  0  0  0  0  0  0  0  0  0  0
    1.8180   16.6920   -1.6610 C   0  0  1  0  0  0  0  0  0  0  0  0
    2.9880   17.7110   -1.6980 C   0  0  0  0  0  0  0  0  0  0  0  0
    2.6450   18.9670   -2.4940 C   0  0  0  0  0  0  0  0  0  0  0  0
    1.4150   19.6600   -1.9140 C   0  0  2  0  0  0  0  0  0  0  0  0
    1.7390   20.1650   -0.6140 O   0  0  0  0  0  0  0  0  0  0  0  0
    0.1740   18.7290   -1.8180 C   0  0  0  0  0  0  0  0  0  0  0  0
   -0.3600   18.4260   -3.2390 C   0  0  0  0  0  0  0  0  0  0  0  0
   -0.9530   19.5080   -1.0880 C   0  0  0  0  0  0  0  0  0  0  0  0
    2.2120   15.3360   -0.9320 C   0  0  1  0  0  0  0  0  0  0  0  0
    3.0820   15.6420    0.3260 C   0  0  0  0  0  0  0  0  0  0  0  0
    3.1120   14.4770   -1.8960 C   0  0  0  0  0  0  0  0  0  0  0  0
    2.3820   13.5340   -2.8710 C   0  0  0  0  0  0  0  0  0  0  0  0
    1.3370   12.6890   -2.1370 C   0  0  2  0  0  0  0  0  0  0  0  0
    2.0910   11.7900   -1.0990 C   0  0  0  0  0  0  0  0  0  0  0  0
    0.2365    9.2572   -1.9523 H   0  0  0  0  0  0  0  0  0  0  0  0
   -0.7797    9.3599   -3.4299 H   0  0  0  0  0  0  0  0  0  0  0  0
    0.7057    8.3499   -3.4299 H   0  0  0  0  0  0  0  0  0  0  0  0
    1.0515   10.4752   -4.6309 H   0  0  0  0  0  0  0  0  0  0  0  0
    2.6852   11.0485   -2.2199 H   0  0  0  0  0  0  0  0  0  0  0  0
    2.7465    9.3362   -2.8590 H   0  0  0  0  0  0  0  0  0  0  0  0
    3.2417   10.3413   -5.1287 H   0  0  0  0  0  0  0  0  0  0  0  0
    3.5165   11.9071   -4.2560 H   0  0  0  0  0  0  0  0  0  0  0  0
    4.8488    9.5032   -4.4868 H   0  0  0  0  0  0  0  0  0  0  0  0
    5.7920   13.2759   -2.6897 H   0  0  0  0  0  0  0  0  0  0  0  0
    6.6947   13.3095   -4.2423 H   0  0  0  0  0  0  0  0  0  0  0  0
    4.9172   13.0510   -4.2423 H   0  0  0  0  0  0  0  0  0  0  0  0
    7.9277   10.7353   -2.7810 H   0  0  0  0  0  0  0  0  0  0  0  0
    7.4763    9.9405   -4.3274 H   0  0  0  0  0  0  0  0  0  0  0  0
    8.0584   11.6399   -4.3274 H   0  0  0  0  0  0  0  0  0  0  0  0
    0.2198   12.2654   -3.9675 H   0  0  0  0  0  0  0  0  0  0  0  0
   -1.7123   11.5817   -2.6918 H   0  0  0  0  0  0  0  0  0  0  0  0
   -0.7450   10.5139   -1.6524 H   0  0  0  0  0  0  0  0  0  0  0  0
   -1.7638   13.0784   -0.9081 H   0  0  0  0  0  0  0  0  0  0  0  0
   -0.5096   12.2187   -0.0187 H   0  0  0  0  0  0  0  0  0  0  0  0
   -1.1578   15.2374   -2.0264 H   0  0  0  0  0  0  0  0  0  0  0  0
    0.2032   15.0645   -3.1859 H   0  0  0  0  0  0  0  0  0  0  0  0
   -1.1346   13.8657   -3.1859 H   0  0  0  0  0  0  0  0  0  0  0  0
    1.3084   13.7882    0.2971 H   0  0  0  0  0  0  0  0  0  0  0  0
   -0.9890   14.9481    0.4241 H   0  0  0  0  0  0  0  0  0  0  0  0
    0.4605   15.5986    1.3547 H   0  0  0  0  0  0  0  0  0  0  0  0
   -1.0693   17.3920    0.1796 H   0  0  0  0  0  0  0  0  0  0  0  0
    1.5849   16.3534   -2.6813 H   0  0  0  0  0  0  0  0  0  0  0  0
    3.2337   18.0034   -0.6664 H   0  0  0  0  0  0  0  0  0  0  0  0
    3.8400   17.2234   -2.1943 H   0  0  0  0  0  0  0  0  0  0  0  0
    3.4987   19.6598   -2.4593 H   0  0  0  0  0  0  0  0  0  0  0  0
    2.4280   18.6767   -3.5326 H   0  0  0  0  0  0  0  0  0  0  0  0
    1.1429   20.4752   -2.6005 H   0  0  0  0  0  0  0  0  0  0  0  0
    2.2630   19.4850   -0.1570 H   0  0  0  0  0  0  0  0  0  0  0  0
   -1.3145   17.8844   -3.1642 H   0  0  0  0  0  0  0  0  0  0  0  0
   -0.5157   19.3703   -3.7813 H   0  0  0  0  0  0  0  0  0  0  0  0
    0.3708   17.8080   -3.7813 H   0  0  0  0  0  0  0  0  0  0  0  0
   -0.8180   19.4147   -0.0003 H   0  0  0  0  0  0  0  0  0  0  0  0
   -0.9091   20.5695   -1.3732 H   0  0  0  0  0  0  0  0  0  0  0  0
   -1.9305   19.0918   -1.3732 H   0  0  0  0  0  0  0  0  0  0  0  0
    2.4975   15.4364    1.2349 H   0  0  0  0  0  0  0  0  0  0  0  0
    3.9790   15.0054    0.3151 H   0  0  0  0  0  0  0  0  0  0  0  0
    3.3830   16.7000    0.3151 H   0  0  0  0  0  0  0  0  0  0  0  0
    3.7160   15.1735   -2.4961 H   0  0  0  0  0  0  0  0  0  0  0  0
    3.6917   13.8155   -1.2354 H   0  0  0  0  0  0  0  0  0  0  0  0
    1.8807   14.1341   -3.6446 H   0  0  0  0  0  0  0  0  0  0  0  0
    3.1218   12.8592   -3.3265 H   0  0  0  0  0  0  0  0  0  0  0  0
    1.8259   12.1061   -0.0793 H   0  0  0  0  0  0  0  0  0  0  0  0
    1.8001   10.7392   -1.2444 H   0  0  0  0  0  0  0  0  0  0  0  0
    3.1764   11.8935   -1.2444 H   0  0  0  0  0  0  0  0  0  0  0  0
  1  2  1  0
  2  3  1  0
  3  4  1  0
  4  5  1  0
  5  6  1  0
  6  7  1  0
  7  8  1  0
  7  9  1  0
  2 10  1  0
 10 11  1  0
 11 12  1  0
 12 13  1  0
 13 14  1  6
 13 15  1  0
 15 16  1  0
 16 17  1  0
 17 18  2  0
 18 19  1  0
 19 20  1  0
 20 21  1  0
 21 22  1  0
 22 23  1  0
 22 24  1  0
 24 25  1  0
 24 26  1  0
 19 27  1  0
 27 28  1  1
 27 29  1  0
 29 30  1  0
 30 31  1  0
 31 32  1  1
  7  5  1  0
 31 10  1  0
 31 13  1  0
 27 15  1  0
 24 18  1  0
  1 33  1  0
  1 34  1  0
  1 35  1  0
  2 36  1  6
  3 37  1  0
  3 38  1  0
  4 39  1  0
  4 40  1  0
  5 41  1  6
  8 42  1  0
  8 43  1  0
  8 44  1  0
  9 45  1  0
  9 46  1  0
  9 47  1  0
 10 48  1  6
 11 49  1  0
 11 50  1  0
 12 51  1  0
 12 52  1  0
 14 53  1  0
 14 54  1  0
 14 55  1  0
 15 56  1  1
 16 57  1  0
 16 58  1  0
 17 59  1  0
 19 60  1  6
 20 61  1  0
 20 62  1  0
 21 63  1  0
 21 64  1  0
 22 65  1  6
 23 66  1  0
 25 67  1  0
 25 68  1  0
 25 69  1  0
 26 70  1  0
 26 71  1  0
 26 72  1  0
 28 73  1  0
 28 74  1  0
 28 75  1  0
 29 76  1  0
 29 77  1  0
 30 78  1  0
 30 79  1  0
 32 80  1  0
 32 81  1  0
 32 82  1  0
M  END
>  <meeko>  (18) 
{"is_sidechain": [false], "intermolecular_energy": 2.731, "internal_energy": -0.839}

$$$$
