EPH_relaxed_0001_pdb2pqr_Repair_325_r2_0001_out
     RDKit          3D

 82 86  0  0  0  0  0  0  0  0999 V2000
    4.5920   17.9500   -0.7260 C   0  0  0  0  0  0  0  0  0  0  0  0
    3.2130   18.4910   -0.3400 C   0  0  2  0  0  0  0  0  0  0  0  0
    3.1870   19.0430    1.0990 C   0  0  0  0  0  0  0  0  0  0  0  0
    4.4370   18.6990    1.9130 C   0  0  0  0  0  0  0  0  0  0  0  0
    4.3480   19.2230    3.3140 C   0  0  2  0  0  0  0  0  0  0  0  0
    5.3490   20.1920    3.6550 O   0  0  0  0  0  0  0  0  0  0  0  0
    5.3960   18.9510    4.3770 C   0  0  0  0  0  0  0  0  0  0  0  0
    6.6080   18.1230    4.0840 C   0  0  0  0  0  0  0  0  0  0  0  0
    5.0040   19.0760    5.8170 C   0  0  0  0  0  0  0  0  0  0  0  0
    2.1620   17.3980   -0.4980 C   0  0  1  0  0  0  0  0  0  0  0  0
    0.8390   17.9250   -1.1140 C   0  0  0  0  0  0  0  0  0  0  0  0
    0.2740   16.7870   -2.0020 C   0  0  0  0  0  0  0  0  0  0  0  0
    1.1020   15.5410   -1.6120 C   0  0  1  0  0  0  0  0  0  0  0  0
    0.4410   15.0150   -0.2990 C   0  0  0  0  0  0  0  0  0  0  0  0
    1.2100   14.4170   -2.6940 C   0  0  2  0  0  0  0  0  0  0  0  0
   -0.1250   13.7630   -3.0920 C   0  0  0  0  0  0  0  0  0  0  0  0
   -0.5120   12.5650   -2.2900 C   0  0  0  0  0  0  0  0  0  0  0  0
    0.3080   11.8640   -1.4850 C   0  0  0  0  0  0  0  0  0  0  0  0
    1.8020   12.2030   -1.3950 C   0  0  1  0  0  0  0  0  0  0  0  0
    2.6350   10.8970   -1.4890 C   0  0  0  0  0  0  0  0  0  0  0  0
    2.2100    9.8560   -0.4580 C   0  0  0  0  0  0  0  0  0  0  0  0
    0.7330    9.5030   -0.6160 C   0  0  2  0  0  0  0  0  0  0  0  0
    0.5520    8.8310   -1.8660 O   0  0  0  0  0  0  0  0  0  0  0  0
   -0.2040   10.7420   -0.5490 C   0  0  0  0  0  0  0  0  0  0  0  0
   -0.2360   11.2920    0.8990 C   0  0  0  0  0  0  0  0  0  0  0  0
   -1.6480   10.2660   -0.8640 C   0  0  0  0  0  0  0  0  0  0  0  0
    2.3190   13.3290   -2.3900 C   0  0  1  0  0  0  0  0  0  0  0  0
    2.7050   12.6930   -3.7600 C   0  0  0  0  0  0  0  0  0  0  0  0
    3.6360   13.9640   -1.8080 C   0  0  0  0  0  0  0  0  0  0  0  0
    3.4670   15.1480   -0.8370 C   0  0  0  0  0  0  0  0  0  0  0  0
    2.5150   16.2000   -1.4150 C   0  0  2  0  0  0  0  0  0  0  0  0
    3.1640   16.7630   -2.7250 C   0  0  0  0  0  0  0  0  0  0  0  0
    5.1658   17.7249    0.1851 H   0  0  0  0  0  0  0  0  0  0  0  0
    4.4726   17.0321   -1.3202 H   0  0  0  0  0  0  0  0  0  0  0  0
    5.1286   18.7043   -1.3202 H   0  0  0  0  0  0  0  0  0  0  0  0
    2.9847   19.3267   -1.0179 H   0  0  0  0  0  0  0  0  0  0  0  0
    3.0955   20.1381    1.0492 H   0  0  0  0  0  0  0  0  0  0  0  0
    2.3326   18.5730    1.6081 H   0  0  0  0  0  0  0  0  0  0  0  0
    4.5497   17.6054    1.9480 H   0  0  0  0  0  0  0  0  0  0  0  0
    5.3037   19.1694    1.4255 H   0  0  0  0  0  0  0  0  0  0  0  0
    3.2536   19.1122    3.3115 H   0  0  0  0  0  0  0  0  0  0  0  0
    7.0725   17.8056    5.0293 H   0  0  0  0  0  0  0  0  0  0  0  0
    6.3144   17.2358    3.5037 H   0  0  0  0  0  0  0  0  0  0  0  0
    7.3277   18.7190    3.5037 H   0  0  0  0  0  0  0  0  0  0  0  0
    5.8581   18.8037    6.4545 H   0  0  0  0  0  0  0  0  0  0  0  0
    4.7059   20.1138    6.0271 H   0  0  0  0  0  0  0  0  0  0  0  0
    4.1601   18.4024    6.0271 H   0  0  0  0  0  0  0  0  0  0  0  0
    2.0858   17.0634    0.5471 H   0  0  0  0  0  0  0  0  0  0  0  0
    0.1231   18.1743   -0.3170 H   0  0  0  0  0  0  0  0  0  0  0  0
    1.0140   18.8365   -1.7044 H   0  0  0  0  0  0  0  0  0  0  0  0
   -0.7937   16.6249   -1.7929 H   0  0  0  0  0  0  0  0  0  0  0  0
    0.3486   17.0186   -3.0748 H   0  0  0  0  0  0  0  0  0  0  0  0
    0.9682   15.4345    0.5705 H   0  0  0  0  0  0  0  0  0  0  0  0
   -0.6147   15.3227   -0.2712 H   0  0  0  0  0  0  0  0  0  0  0  0
    0.5038   13.9171   -0.2712 H   0  0  0  0  0  0  0  0  0  0  0  0
    1.5447   14.9751   -3.5808 H   0  0  0  0  0  0  0  0  0  0  0  0
   -0.9188   14.5165   -2.9821 H   0  0  0  0  0  0  0  0  0  0  0  0
    0.0058   13.4085   -4.1251 H   0  0  0  0  0  0  0  0  0  0  0  0
   -1.5560   12.2263   -2.3631 H   0  0  0  0  0  0  0  0  0  0  0  0
    1.9492   12.6705   -0.4102 H   0  0  0  0  0  0  0  0  0  0  0  0
    2.5081   10.4695   -2.4946 H   0  0  0  0  0  0  0  0  0  0  0  0
    3.6851   11.1559   -1.2885 H   0  0  0  0  0  0  0  0  0  0  0  0
    2.8140    8.9468   -0.5943 H   0  0  0  0  0  0  0  0  0  0  0  0
    2.3655   10.2739    0.5476 H   0  0  0  0  0  0  0  0  0  0  0  0
    0.4563    8.8546    0.2284 H   0  0  0  0  0  0  0  0  0  0  0  0
   -0.1340    8.1530   -1.7390 H   0  0  0  0  0  0  0  0  0  0  0  0
   -0.1873   10.4545    1.6105 H   0  0  0  0  0  0  0  0  0  0  0  0
    0.6249   11.9582    1.0573 H   0  0  0  0  0  0  0  0  0  0  0  0
   -1.1684   11.8538    1.0573 H   0  0  0  0  0  0  0  0  0  0  0  0
   -2.1888   10.0877    0.0771 H   0  0  0  0  0  0  0  0  0  0  0  0
   -2.1703   11.0395   -1.4461 H   0  0  0  0  0  0  0  0  0  0  0  0
   -1.6079    9.3335   -1.4461 H   0  0  0  0  0  0  0  0  0  0  0  0
    3.2686   11.7643   -3.5873 H   0  0  0  0  0  0  0  0  0  0  0  0
    1.7916   12.4670   -4.3297 H   0  0  0  0  0  0  0  0  0  0  0  0
    3.3272   13.3990   -4.3297 H   0  0  0  0  0  0  0  0  0  0  0  0
    4.1798   13.1709   -1.2740 H   0  0  0  0  0  0  0  0  0  0  0  0
    4.1640   14.3796   -2.6789 H   0  0  0  0  0  0  0  0  0  0  0  0
    3.0585   14.7773    0.1147 H   0  0  0  0  0  0  0  0  0  0  0  0
    4.4505   15.6145   -0.6784 H   0  0  0  0  0  0  0  0  0  0  0  0
    3.9710   17.4630   -2.4628 H   0  0  0  0  0  0  0  0  0  0  0  0
    3.5769   15.9322   -3.3160 H   0  0  0  0  0  0  0  0  0  0  0  0
    2.3998   17.2891   -3.3160 H   0  0  0  0  0  0  0  0  0  0  0  0
  1  2  1  0
  2  3  1  0
  3  4  1  0
  4  5  1  0
  5  6  1  0
  6  7  1  0
  7  8  1  0
  7  9  1  0
  2 10  1  0
 10 11  1  0
 11 12  1  0
 12 13  1  0
 13 14  1  1
 13 15  1  0
 15 16  1  0
 16 17  1  0
 17 18  2  0
 18 19  1  0
 19 20  1  0
 20 21  1  0
 21 22  1  0
 22 23  1  0
 22 24  1  0
 24 25  1  0
 24 26  1  0
 19 27  1  0
 27 28  1  6
 27 29  1  0
 29 30  1  0
 30 31  1  0
 31 32  1  6
  7  5  1  0
 31 10  1  0
 31 13  1  0
 27 15  1  0
 24 18  1  0
  1 33  1  0
  1 34  1  0
  1 35  1  0
  2 36  1  6
  3 37  1  0
  3 38  1  0
  4 39  1  0
  4 40  1  0
  5 41  1  1
  8 42  1  0
  8 43  1  0
  8 44  1  0
  9 45  1  0
  9 46  1  0
  9 47  1  0
 10 48  1  1
 11 49  1  0
 11 50  1  0
 12 51  1  0
 12 52  1  0
 14 53  1  0
 14 54  1  0
 14 55  1  0
 15 56  1  6
 16 57  1  0
 16 58  1  0
 17 59  1  0
 19 60  1  1
 20 61  1  0
 20 62  1  0
 21 63  1  0
 21 64  1  0
 22 65  1  1
 23 66  1  0
 25 67  1  0
 25 68  1  0
 25 69  1  0
 26 70  1  0
 26 71  1  0
 26 72  1  0
 28 73  1  0
 28 74  1  0
 28 75  1  0
 29 76  1  0
 29 77  1  0
 30 78  1  0
 30 79  1  0
 32 80  1  0
 32 81  1  0
 32 82  1  0
M  END
>  <meeko>  (1) 
{"is_sidechain": [false], "intermolecular_energy": 2.731, "internal_energy": -0.839}

$$$$
EPH_relaxed_0001_pdb2pqr_Repair_325_r2_0001_out
     RDKit          3D

 82 86  0  0  0  0  0  0  0  0999 V2000
    4.1070   18.3230    0.3340 C   0  0  0  0  0  0  0  0  0  0  0  0
    2.9940   18.7830   -0.6110 C   0  0  2  0  0  0  0  0  0  0  0  0
    2.2410   20.0140   -0.0660 C   0  0  0  0  0  0  0  0  0  0  0  0
    1.1120   19.6630    0.9070 C   0  0  0  0  0  0  0  0  0  0  0  0
   -0.2100   20.1870    0.4340 C   0  0  2  0  0  0  0  0  0  0  0  0
   -1.2420   20.1920    1.4290 O   0  0  0  0  0  0  0  0  0  0  0  0
   -1.4520   19.3260    0.3020 C   0  0  0  0  0  0  0  0  0  0  0  0
   -1.4320   17.8690    0.6430 C   0  0  0  0  0  0  0  0  0  0  0  0
   -2.5450   19.7820   -0.6130 C   0  0  0  0  0  0  0  0  0  0  0  0
    2.0160   17.6410   -0.8580 C   0  0  1  0  0  0  0  0  0  0  0  0
    0.8240   18.0590   -1.7600 C   0  0  0  0  0  0  0  0  0  0  0  0
    0.4620   16.8240   -2.6240 C   0  0  0  0  0  0  0  0  0  0  0  0
    1.2250   15.6510   -1.9660 C   0  0  1  0  0  0  0  0  0  0  0  0
    0.3360   15.2220   -0.7570 C   0  0  0  0  0  0  0  0  0  0  0  0
    1.5610   14.4380   -2.8940 C   0  0  2  0  0  0  0  0  0  0  0  0
    0.3400   13.7000   -3.4710 C   0  0  0  0  0  0  0  0  0  0  0  0
   -0.1690   12.5660   -2.6450 C   0  0  0  0  0  0  0  0  0  0  0  0
    0.4960   11.9740   -1.6350 C   0  0  0  0  0  0  0  0  0  0  0  0
    1.9380   12.3760   -1.2990 C   0  0  1  0  0  0  0  0  0  0  0  0
    2.8000   11.1000   -1.1070 C   0  0  0  0  0  0  0  0  0  0  0  0
    2.2060   10.1420   -0.0790 C   0  0  0  0  0  0  0  0  0  0  0  0
    0.7940    9.7200   -0.4780 C   0  0  2  0  0  0  0  0  0  0  0  0
    0.8690    8.9290   -1.6690 O   0  0  0  0  0  0  0  0  0  0  0  0
   -0.1630   10.9220   -0.7090 C   0  0  0  0  0  0  0  0  0  0  0  0
   -0.4820   11.6010    0.6470 C   0  0  0  0  0  0  0  0  0  0  0  0
   -1.5100   10.3650   -1.2420 C   0  0  0  0  0  0  0  0  0  0  0  0
    2.6120   13.4260   -2.2830 C   0  0  1  0  0  0  0  0  0  0  0  0
    3.2670   12.6820   -3.4870 C   0  0  0  0  0  0  0  0  0  0  0  0
    3.7820   14.1610   -1.5270 C   0  0  0  0  0  0  0  0  0  0  0  0
    3.4060   15.4210   -0.7250 C   0  0  0  0  0  0  0  0  0  0  0  0
    2.5610   16.3790   -1.5710 C   0  0  2  0  0  0  0  0  0  0  0  0
    3.4370   16.8440   -2.7840 C   0  0  0  0  0  0  0  0  0  0  0  0
    3.7819   18.4574    1.3762 H   0  0  0  0  0  0  0  0  0  0  0  0
    4.3264   17.2605    0.1524 H   0  0  0  0  0  0  0  0  0  0  0  0
    5.0125   18.9206    0.1524 H   0  0  0  0  0  0  0  0  0  0  0  0
    3.4666   19.0785   -1.5593 H   0  0  0  0  0  0  0  0  0  0  0  0
    2.9624   20.6590    0.4570 H   0  0  0  0  0  0  0  0  0  0  0  0
    1.7781   20.5159   -0.9285 H   0  0  0  0  0  0  0  0  0  0  0  0
    1.0491   18.5688    1.0003 H   0  0  0  0  0  0  0  0  0  0  0  0
    1.3383   20.1289    1.8774 H   0  0  0  0  0  0  0  0  0  0  0  0
    0.2863   20.8778   -0.2635 H   0  0  0  0  0  0  0  0  0  0  0  0
   -1.4303   17.7483    1.7364 H   0  0  0  0  0  0  0  0  0  0  0  0
   -2.3235   17.3815    0.2216 H   0  0  0  0  0  0  0  0  0  0  0  0
   -0.5274   17.4062    0.2216 H   0  0  0  0  0  0  0  0  0  0  0  0
   -3.3980   20.1379   -0.0165 H   0  0  0  0  0  0  0  0  0  0  0  0
   -2.1744   20.6006   -1.2475 H   0  0  0  0  0  0  0  0  0  0  0  0
   -2.8660   18.9428   -1.2475 H   0  0  0  0  0  0  0  0  0  0  0  0
    1.7491   17.4000    0.1816 H   0  0  0  0  0  0  0  0  0  0  0  0
   -0.0357   18.3524   -1.1397 H   0  0  0  0  0  0  0  0  0  0  0  0
    1.0899   18.9190   -2.3923 H   0  0  0  0  0  0  0  0  0  0  0  0
   -0.6225   16.6412   -2.6051 H   0  0  0  0  0  0  0  0  0  0  0  0
    0.7356   16.9593   -3.6808 H   0  0  0  0  0  0  0  0  0  0  0  0
    0.8507   15.4704    0.1829 H   0  0  0  0  0  0  0  0  0  0  0  0
   -0.6249   15.7555   -0.8009 H   0  0  0  0  0  0  0  0  0  0  0  0
    0.1557   14.1378   -0.8009 H   0  0  0  0  0  0  0  0  0  0  0  0
    2.0484   14.9252   -3.7514 H   0  0  0  0  0  0  0  0  0  0  0  0
   -0.4752   14.4296   -3.5856 H   0  0  0  0  0  0  0  0  0  0  0  0
    0.6730   13.2582   -4.4217 H   0  0  0  0  0  0  0  0  0  0  0  0
   -1.1721   12.1814   -2.8813 H   0  0  0  0  0  0  0  0  0  0  0  0
    1.8854   12.9362   -0.3538 H   0  0  0  0  0  0  0  0  0  0  0  0
    2.8771   10.5780   -2.0722 H   0  0  0  0  0  0  0  0  0  0  0  0
    3.7868   11.4161   -0.7378 H   0  0  0  0  0  0  0  0  0  0  0  0
    2.8430    9.2478   -0.0101 H   0  0  0  0  0  0  0  0  0  0  0  0
    2.1575   10.6557    0.8925 H   0  0  0  0  0  0  0  0  0  0  0  0
    0.3740    9.1416    0.3581 H   0  0  0  0  0  0  0  0  0  0  0  0
    0.2280    9.2920   -2.3030 H   0  0  0  0  0  0  0  0  0  0  0  0
   -0.1716   10.9403    1.4699 H   0  0  0  0  0  0  0  0  0  0  0  0
    0.0625   12.5542    0.7168 H   0  0  0  0  0  0  0  0  0  0  0  0
   -1.5633   11.7904    0.7168 H   0  0  0  0  0  0  0  0  0  0  0  0
   -2.1574   10.0973   -0.3939 H   0  0  0  0  0  0  0  0  0  0  0  0
   -2.0069   11.1314   -1.8549 H   0  0  0  0  0  0  0  0  0  0  0  0
   -1.3205    9.4715   -1.8549 H   0  0  0  0  0  0  0  0  0  0  0  0
    3.9501   11.9061   -3.1109 H   0  0  0  0  0  0  0  0  0  0  0  0
    2.4823   12.2141   -4.0997 H   0  0  0  0  0  0  0  0  0  0  0  0
    3.8306   13.4010   -4.0997 H   0  0  0  0  0  0  0  0  0  0  0  0
    4.2293   13.4412   -0.8257 H   0  0  0  0  0  0  0  0  0  0  0  0
    4.4592   14.5146   -2.3184 H   0  0  0  0  0  0  0  0  0  0  0  0
    2.8305   15.1231    0.1638 H   0  0  0  0  0  0  0  0  0  0  0  0
    4.3313   15.9375   -0.4300 H   0  0  0  0  0  0  0  0  0  0  0  0
    4.3512   17.3293   -2.4114 H   0  0  0  0  0  0  0  0  0  0  0  0
    3.7085   15.9713   -3.3961 H   0  0  0  0  0  0  0  0  0  0  0  0
    2.8663   17.5579   -3.3961 H   0  0  0  0  0  0  0  0  0  0  0  0
  1  2  1  0
  2  3  1  0
  3  4  1  0
  4  5  1  0
  5  6  1  0
  6  7  1  0
  7  8  1  0
  7  9  1  0
  2 10  1  0
 10 11  1  0
 11 12  1  0
 12 13  1  0
 13 14  1  1
 13 15  1  0
 15 16  1  0
 16 17  1  0
 17 18  2  0
 18 19  1  0
 19 20  1  0
 20 21  1  0
 21 22  1  0
 22 23  1  0
 22 24  1  0
 24 25  1  0
 24 26  1  0
 19 27  1  0
 27 28  1  6
 27 29  1  0
 29 30  1  0
 30 31  1  0
 31 32  1  6
  7  5  1  0
 31 10  1  0
 31 13  1  0
 27 15  1  0
 24 18  1  0
  1 33  1  0
  1 34  1  0
  1 35  1  0
  2 36  1  6
  3 37  1  0
  3 38  1  0
  4 39  1  0
  4 40  1  0
  5 41  1  6
  8 42  1  0
  8 43  1  0
  8 44  1  0
  9 45  1  0
  9 46  1  0
  9 47  1  0
 10 48  1  1
 11 49  1  0
 11 50  1  0
 12 51  1  0
 12 52  1  0
 14 53  1  0
 14 54  1  0
 14 55  1  0
 15 56  1  6
 16 57  1  0
 16 58  1  0
 17 59  1  0
 19 60  1  1
 20 61  1  0
 20 62  1  0
 21 63  1  0
 21 64  1  0
 22 65  1  1
 23 66  1  0
 25 67  1  0
 25 68  1  0
 25 69  1  0
 26 70  1  0
 26 71  1  0
 26 72  1  0
 28 73  1  0
 28 74  1  0
 28 75  1  0
 29 76  1  0
 29 77  1  0
 30 78  1  0
 30 79  1  0
 32 80  1  0
 32 81  1  0
 32 82  1  0
M  END
>  <meeko>  (2) 
{"is_sidechain": [false], "intermolecular_energy": 2.731, "internal_energy": -0.839}

$$$$
EPH_relaxed_0001_pdb2pqr_Repair_325_r2_0001_out
     RDKit          3D

 82 86  0  0  0  0  0  0  0  0999 V2000
   -1.6140    8.6710   -1.9080 C   0  0  0  0  0  0  0  0  0  0  0  0
   -2.0070    9.1260   -0.5000 C   0  0  2  0  0  0  0  0  0  0  0  0
   -3.5150    9.4250   -0.3850 C   0  0  0  0  0  0  0  0  0  0  0  0
   -4.3870    8.1680   -0.3060 C   0  0  0  0  0  0  0  0  0  0  0  0
   -5.1130    7.9150   -1.5930 C   0  0  2  0  0  0  0  0  0  0  0  0
   -6.3060    8.6890   -1.7690 O   0  0  0  0  0  0  0  0  0  0  0  0
   -6.4830    7.2670   -1.6670 C   0  0  0  0  0  0  0  0  0  0  0  0
   -7.2080    6.8320   -0.4320 C   0  0  0  0  0  0  0  0  0  0  0  0
   -6.8990    6.6170   -2.9490 C   0  0  0  0  0  0  0  0  0  0  0  0
   -1.2010   10.3590   -0.1080 C   0  0  1  0  0  0  0  0  0  0  0  0
   -0.2100   10.0820    1.0540 C   0  0  0  0  0  0  0  0  0  0  0  0
    1.0470   10.9490    0.7870 C   0  0  0  0  0  0  0  0  0  0  0  0
    0.6120   11.9350   -0.3220 C   0  0  1  0  0  0  0  0  0  0  0  0
   -0.1630   13.0650    0.4270 C   0  0  0  0  0  0  0  0  0  0  0  0
    1.7540   12.5160   -1.2180 C   0  0  2  0  0  0  0  0  0  0  0  0
    2.8010   13.3630   -0.4730 C   0  0  0  0  0  0  0  0  0  0  0  0
    2.5020   14.8230   -0.3970 C   0  0  0  0  0  0  0  0  0  0  0  0
    1.5900   15.4750   -1.1420 C   0  0  0  0  0  0  0  0  0  0  0  0
    0.8140   14.7500   -2.2490 C   0  0  1  0  0  0  0  0  0  0  0  0
    0.8170   15.6170   -3.5360 C   0  0  0  0  0  0  0  0  0  0  0  0
    0.2990   17.0310   -3.2900 C   0  0  0  0  0  0  0  0  0  0  0  0
    1.1320   17.7390   -2.2250 C   0  0  2  0  0  0  0  0  0  0  0  0
    2.4510   17.9500   -2.7370 O   0  0  0  0  0  0  0  0  0  0  0  0
    1.2100   16.9540   -0.8860 C   0  0  0  0  0  0  0  0  0  0  0  0
   -0.1700   16.9860   -0.1830 C   0  0  0  0  0  0  0  0  0  0  0  0
    2.1920   17.7060    0.0520 C   0  0  0  0  0  0  0  0  0  0  0  0
    1.2450   13.2460   -2.5260 C   0  0  1  0  0  0  0  0  0  0  0  0
    2.4240   13.2080   -3.5450 C   0  0  0  0  0  0  0  0  0  0  0  0
    0.0460   12.4850   -3.2070 C   0  0  0  0  0  0  0  0  0  0  0  0
   -0.9860   11.8310   -2.2680 C   0  0  0  0  0  0  0  0  0  0  0  0
   -0.2920   10.9890   -1.1930 C   0  0  2  0  0  0  0  0  0  0  0  0
    0.4780    9.8310   -1.9160 C   0  0  0  0  0  0  0  0  0  0  0  0
   -0.8964    7.8402   -1.8379 H   0  0  0  0  0  0  0  0  0  0  0  0
   -2.5113    8.3358   -2.4488 H   0  0  0  0  0  0  0  0  0  0  0  0
   -1.1519    9.5100   -2.4488 H   0  0  0  0  0  0  0  0  0  0  0  0
   -1.7811    8.2989    0.1891 H   0  0  0  0  0  0  0  0  0  0  0  0
   -3.6825   10.0217    0.5238 H   0  0  0  0  0  0  0  0  0  0  0  0
   -3.8071    9.9624   -1.2993 H   0  0  0  0  0  0  0  0  0  0  0  0
   -3.7457    7.3027   -0.0824 H   0  0  0  0  0  0  0  0  0  0  0  0
   -5.1354    8.3191    0.4859 H   0  0  0  0  0  0  0  0  0  0  0  0
   -4.1670    7.7019   -2.1123 H   0  0  0  0  0  0  0  0  0  0  0  0
   -6.6518    7.1657    0.4564 H   0  0  0  0  0  0  0  0  0  0  0  0
   -8.2146    7.2754   -0.4224 H   0  0  0  0  0  0  0  0  0  0  0  0
   -7.2904    5.7351   -0.4224 H   0  0  0  0  0  0  0  0  0  0  0  0
   -7.4799    5.7093   -2.7283 H   0  0  0  0  0  0  0  0  0  0  0  0
   -7.5179    7.3161   -3.5306 H   0  0  0  0  0  0  0  0  0  0  0  0
   -6.0050    6.3478   -3.5306 H   0  0  0  0  0  0  0  0  0  0  0  0
   -2.0243   11.0455    0.1388 H   0  0  0  0  0  0  0  0  0  0  0  0
   -0.6658   10.3618    2.0152 H   0  0  0  0  0  0  0  0  0  0  0  0
    0.0504    9.0145    1.1046 H   0  0  0  0  0  0  0  0  0  0  0  0
    1.3438   11.4930    1.6958 H   0  0  0  0  0  0  0  0  0  0  0  0
    1.9160   10.3436    0.4898 H   0  0  0  0  0  0  0  0  0  0  0  0
   -0.0636   12.9201    1.5129 H   0  0  0  0  0  0  0  0  0  0  0  0
    0.2550   14.0434    0.1479 H   0  0  0  0  0  0  0  0  0  0  0  0
   -1.2263   13.0275    0.1479 H   0  0  0  0  0  0  0  0  0  0  0  0
    2.2816   11.6078   -1.5448 H   0  0  0  0  0  0  0  0  0  0  0  0
    2.8808   12.9784    0.5545 H   0  0  0  0  0  0  0  0  0  0  0  0
    3.7328   13.2726   -1.0506 H   0  0  0  0  0  0  0  0  0  0  0  0
    3.0757   15.4170    0.3297 H   0  0  0  0  0  0  0  0  0  0  0  0
   -0.2149   14.6381   -1.8765 H   0  0  0  0  0  0  0  0  0  0  0  0
    1.8472   15.6800   -3.9163 H   0  0  0  0  0  0  0  0  0  0  0  0
    0.1456   15.1372   -4.2634 H   0  0  0  0  0  0  0  0  0  0  0  0
    0.3530   17.6026   -4.2283 H   0  0  0  0  0  0  0  0  0  0  0  0
   -0.7412   16.9677   -2.9378 H   0  0  0  0  0  0  0  0  0  0  0  0
    0.6360   18.6945   -1.9992 H   0  0  0  0  0  0  0  0  0  0  0  0
    3.0030   17.2060   -2.4420 H   0  0  0  0  0  0  0  0  0  0  0  0
   -0.0261   16.9827    0.9075 H   0  0  0  0  0  0  0  0  0  0  0  0
   -0.7111   17.8969   -0.4787 H   0  0  0  0  0  0  0  0  0  0  0  0
   -0.7527   16.1011   -0.4787 H   0  0  0  0  0  0  0  0  0  0  0  0
    1.9264   17.5026    1.0999 H   0  0  0  0  0  0  0  0  0  0  0  0
    3.2188   17.3611   -0.1396 H   0  0  0  0  0  0  0  0  0  0  0  0
    2.1267   18.7872   -0.1396 H   0  0  0  0  0  0  0  0  0  0  0  0
    3.3789   13.1772   -2.9999 H   0  0  0  0  0  0  0  0  0  0  0  0
    2.3336   12.3123   -4.1771 H   0  0  0  0  0  0  0  0  0  0  0  0
    2.3915   14.1077   -4.1771 H   0  0  0  0  0  0  0  0  0  0  0  0
   -0.4906   13.2078   -3.8392 H   0  0  0  0  0  0  0  0  0  0  0  0
    0.5087   11.6492   -3.7523 H   0  0  0  0  0  0  0  0  0  0  0  0
   -1.5794   12.6187   -1.7808 H   0  0  0  0  0  0  0  0  0  0  0  0
   -1.6355   11.1731   -2.8641 H   0  0  0  0  0  0  0  0  0  0  0  0
    0.9230    9.1617   -1.1650 H   0  0  0  0  0  0  0  0  0  0  0  0
   -0.2222    9.2620   -2.5452 H   0  0  0  0  0  0  0  0  0  0  0  0
    1.2736   10.2566   -2.5452 H   0  0  0  0  0  0  0  0  0  0  0  0
  1  2  1  0
  2  3  1  0
  3  4  1  0
  4  5  1  0
  5  6  1  0
  6  7  1  0
  7  8  1  0
  7  9  1  0
  2 10  1  0
 10 11  1  0
 11 12  1  0
 12 13  1  0
 13 14  1  1
 13 15  1  0
 15 16  1  0
 16 17  1  0
 17 18  2  0
 18 19  1  0
 19 20  1  0
 20 21  1  0
 21 22  1  0
 22 23  1  0
 22 24  1  0
 24 25  1  0
 24 26  1  0
 19 27  1  0
 27 28  1  6
 27 29  1  0
 29 30  1  0
 30 31  1  0
 31 32  1  6
  7  5  1  0
 31 10  1  0
 31 13  1  0
 27 15  1  0
 24 18  1  0
  1 33  1  0
  1 34  1  0
  1 35  1  0
  2 36  1  1
  3 37  1  0
  3 38  1  0
  4 39  1  0
  4 40  1  0
  5 41  1  6
  8 42  1  0
  8 43  1  0
  8 44  1  0
  9 45  1  0
  9 46  1  0
  9 47  1  0
 10 48  1  1
 11 49  1  0
 11 50  1  0
 12 51  1  0
 12 52  1  0
 14 53  1  0
 14 54  1  0
 14 55  1  0
 15 56  1  6
 16 57  1  0
 16 58  1  0
 17 59  1  0
 19 60  1  1
 20 61  1  0
 20 62  1  0
 21 63  1  0
 21 64  1  0
 22 65  1  1
 23 66  1  0
 25 67  1  0
 25 68  1  0
 25 69  1  0
 26 70  1  0
 26 71  1  0
 26 72  1  0
 28 73  1  0
 28 74  1  0
 28 75  1  0
 29 76  1  0
 29 77  1  0
 30 78  1  0
 30 79  1  0
 32 80  1  0
 32 81  1  0
 32 82  1  0
M  END
>  <meeko>  (3) 
{"is_sidechain": [false], "intermolecular_energy": 2.731, "internal_energy": -0.839}

$$$$
EPH_relaxed_0001_pdb2pqr_Repair_325_r2_0001_out
     RDKit          3D

 82 86  0  0  0  0  0  0  0  0999 V2000
    1.8080   18.3710   -1.9620 C   0  0  0  0  0  0  0  0  0  0  0  0
    1.7330   17.2830   -0.8870 C   0  0  2  0  0  0  0  0  0  0  0  0
    3.1300   16.8610   -0.3890 C   0  0  0  0  0  0  0  0  0  0  0  0
    4.0510   18.0410   -0.0670 C   0  0  0  0  0  0  0  0  0  0  0  0
    3.6590   18.7180    1.2110 C   0  0  2  0  0  0  0  0  0  0  0  0
    3.9890   20.1110    1.2770 O   0  0  0  0  0  0  0  0  0  0  0  0
    4.6620   19.2550    2.2150 C   0  0  0  0  0  0  0  0  0  0  0  0
    6.1360   19.1390    1.9850 C   0  0  0  0  0  0  0  0  0  0  0  0
    4.2210   19.4510    3.6320 C   0  0  0  0  0  0  0  0  0  0  0  0
    0.9830   16.0710   -1.4260 C   0  0  1  0  0  0  0  0  0  0  0  0
    0.4620   16.2850   -2.8710 C   0  0  0  0  0  0  0  0  0  0  0  0
    0.5570   14.9140   -3.5890 C   0  0  0  0  0  0  0  0  0  0  0  0
    0.8110   13.8960   -2.4530 C   0  0  1  0  0  0  0  0  0  0  0  0
   -0.5980   13.6190   -1.8400 C   0  0  0  0  0  0  0  0  0  0  0  0
    1.5330   12.5710   -2.8610 C   0  0  2  0  0  0  0  0  0  0  0  0
    0.7680   11.6940   -3.8680 C   0  0  0  0  0  0  0  0  0  0  0  0
   -0.1460   10.6800   -3.2640 C   0  0  0  0  0  0  0  0  0  0  0  0
   -0.1360   10.2850   -1.9770 C   0  0  0  0  0  0  0  0  0  0  0  0
    0.9290   10.8030   -1.0030 C   0  0  1  0  0  0  0  0  0  0  0  0
    1.5080    9.6160   -0.1890 C   0  0  0  0  0  0  0  0  0  0  0  0
    0.4230    8.8030    0.5110 C   0  0  0  0  0  0  0  0  0  0  0  0
   -0.5840    8.2570   -0.4970 C   0  0  2  0  0  0  0  0  0  0  0  0
    0.0710    7.2940   -1.3280 O   0  0  0  0  0  0  0  0  0  0  0  0
   -1.2270    9.3610   -1.3820 C   0  0  0  0  0  0  0  0  0  0  0  0
   -2.1810   10.2270   -0.5230 C   0  0  0  0  0  0  0  0  0  0  0  0
   -2.1150    8.6630   -2.4470 C   0  0  0  0  0  0  0  0  0  0  0  0
    2.0630   11.7180   -1.6380 C   0  0  1  0  0  0  0  0  0  0  0  0
    3.2210   10.8280   -2.1850 C   0  0  0  0  0  0  0  0  0  0  0  0
    2.6910   12.6180   -0.5090 C   0  0  0  0  0  0  0  0  0  0  0  0
    2.0020   13.9690   -0.2340 C   0  0  0  0  0  0  0  0  0  0  0  0
    1.7690   14.7400   -1.5360 C   0  0  2  0  0  0  0  0  0  0  0  0
    3.1700   15.0520   -2.1650 C   0  0  0  0  0  0  0  0  0  0  0  0
    1.8760   19.3578   -1.4808 H   0  0  0  0  0  0  0  0  0  0  0  0
    2.6969   18.2066   -2.5887 H   0  0  0  0  0  0  0  0  0  0  0  0
    0.9049   18.3301   -2.5887 H   0  0  0  0  0  0  0  0  0  0  0  0
    1.1903   17.7035   -0.0276 H   0  0  0  0  0  0  0  0  0  0  0  0
    3.0062   16.2582    0.5228 H   0  0  0  0  0  0  0  0  0  0  0  0
    3.6048   16.2958   -1.2045 H   0  0  0  0  0  0  0  0  0  0  0  0
    5.0831   17.6722    0.0271 H   0  0  0  0  0  0  0  0  0  0  0  0
    3.9668   18.7740   -0.8829 H   0  0  0  0  0  0  0  0  0  0  0  0
    2.7868   18.0567    1.3208 H   0  0  0  0  0  0  0  0  0  0  0  0
    6.6561   19.0981    2.9534 H   0  0  0  0  0  0  0  0  0  0  0  0
    6.3473   18.2215    1.4163 H   0  0  0  0  0  0  0  0  0  0  0  0
    6.4882   20.0122    1.4163 H   0  0  0  0  0  0  0  0  0  0  0  0
    5.0101   19.1003    4.3134 H   0  0  0  0  0  0  0  0  0  0  0  0
    4.0292   20.5191    3.8119 H   0  0  0  0  0  0  0  0  0  0  0  0
    3.2997   18.8776    3.8119 H   0  0  0  0  0  0  0  0  0  0  0  0
    0.1992   15.9830   -0.6593 H   0  0  0  0  0  0  0  0  0  0  0  0
   -0.5823   16.6299   -2.8498 H   0  0  0  0  0  0  0  0  0  0  0  0
    1.0561   17.0475   -3.3960 H   0  0  0  0  0  0  0  0  0  0  0  0
   -0.3822   14.6843   -4.1135 H   0  0  0  0  0  0  0  0  0  0  0  0
    1.3504   14.8959   -4.3507 H   0  0  0  0  0  0  0  0  0  0  0  0
   -0.5294   13.6325   -0.7422 H   0  0  0  0  0  0  0  0  0  0  0  0
   -1.3019   14.3960   -2.1730 H   0  0  0  0  0  0  0  0  0  0  0  0
   -0.9554   12.6334   -2.1730 H   0  0  0  0  0  0  0  0  0  0  0  0
    2.4180   12.9414   -3.3992 H   0  0  0  0  0  0  0  0  0  0  0  0
    0.1659   12.3565   -4.5072 H   0  0  0  0  0  0  0  0  0  0  0  0
    1.5319   11.1257   -4.4189 H   0  0  0  0  0  0  0  0  0  0  0  0
   -0.8911   10.2160   -3.9269 H   0  0  0  0  0  0  0  0  0  0  0  0
    0.4105   11.5003   -0.3285 H   0  0  0  0  0  0  0  0  0  0  0  0
    2.0584    8.9540   -0.8736 H   0  0  0  0  0  0  0  0  0  0  0  0
    2.1665   10.0328    0.5873 H   0  0  0  0  0  0  0  0  0  0  0  0
    0.8906    7.9623    1.0444 H   0  0  0  0  0  0  0  0  0  0  0  0
   -0.1071    9.4589    1.2172 H   0  0  0  0  0  0  0  0  0  0  0  0
   -1.4042    7.7967    0.0734 H   0  0  0  0  0  0  0  0  0  0  0  0
    0.6550    7.7790   -1.9360 H   0  0  0  0  0  0  0  0  0  0  0  0
   -1.9809   10.0454    0.5433 H   0  0  0  0  0  0  0  0  0  0  0  0
   -2.0162   11.2904   -0.7511 H   0  0  0  0  0  0  0  0  0  0  0  0
   -3.2235    9.9604   -0.7511 H   0  0  0  0  0  0  0  0  0  0  0  0
   -2.8841    8.0585   -1.9440 H   0  0  0  0  0  0  0  0  0  0  0  0
   -2.6001    9.4241   -3.0758 H   0  0  0  0  0  0  0  0  0  0  0  0
   -1.4900    8.0119   -3.0758 H   0  0  0  0  0  0  0  0  0  0  0  0
    3.7817   10.3971   -1.3424 H   0  0  0  0  0  0  0  0  0  0  0  0
    2.8017   10.0175   -2.7992 H   0  0  0  0  0  0  0  0  0  0  0  0
    3.8964   11.4417   -2.7992 H   0  0  0  0  0  0  0  0  0  0  0  0
    2.6738   12.0391    0.4262 H   0  0  0  0  0  0  0  0  0  0  0  0
    3.6965   12.8763   -0.8726 H   0  0  0  0  0  0  0  0  0  0  0  0
    1.0334   13.7862    0.2543 H   0  0  0  0  0  0  0  0  0  0  0  0
    2.6542   14.5693    0.4174 H   0  0  0  0  0  0  0  0  0  0  0  0
    3.9041   15.2155   -1.3623 H   0  0  0  0  0  0  0  0  0  0  0  0
    3.4899   14.2031   -2.7871 H   0  0  0  0  0  0  0  0  0  0  0  0
    3.0994   15.9564   -2.7871 H   0  0  0  0  0  0  0  0  0  0  0  0
  1  2  1  0
  2  3  1  0
  3  4  1  0
  4  5  1  0
  5  6  1  0
  6  7  1  0
  7  8  1  0
  7  9  1  0
  2 10  1  0
 10 11  1  0
 11 12  1  0
 12 13  1  0
 13 14  1  1
 13 15  1  0
 15 16  1  0
 16 17  1  0
 17 18  2  0
 18 19  1  0
 19 20  1  0
 20 21  1  0
 21 22  1  0
 22 23  1  0
 22 24  1  0
 24 25  1  0
 24 26  1  0
 19 27  1  0
 27 28  1  6
 27 29  1  0
 29 30  1  0
 30 31  1  0
 31 32  1  6
  7  5  1  0
 31 10  1  0
 31 13  1  0
 27 15  1  0
 24 18  1  0
  1 33  1  0
  1 34  1  0
  1 35  1  0
  2 36  1  1
  3 37  1  0
  3 38  1  0
  4 39  1  0
  4 40  1  0
  5 41  1  1
  8 42  1  0
  8 43  1  0
  8 44  1  0
  9 45  1  0
  9 46  1  0
  9 47  1  0
 10 48  1  1
 11 49  1  0
 11 50  1  0
 12 51  1  0
 12 52  1  0
 14 53  1  0
 14 54  1  0
 14 55  1  0
 15 56  1  6
 16 57  1  0
 16 58  1  0
 17 59  1  0
 19 60  1  1
 20 61  1  0
 20 62  1  0
 21 63  1  0
 21 64  1  0
 22 65  1  1
 23 66  1  0
 25 67  1  0
 25 68  1  0
 25 69  1  0
 26 70  1  0
 26 71  1  0
 26 72  1  0
 28 73  1  0
 28 74  1  0
 28 75  1  0
 29 76  1  0
 29 77  1  0
 30 78  1  0
 30 79  1  0
 32 80  1  0
 32 81  1  0
 32 82  1  0
M  END
>  <meeko>  (4) 
{"is_sidechain": [false], "intermolecular_energy": 2.731, "internal_energy": -0.839}

$$$$
EPH_relaxed_0001_pdb2pqr_Repair_325_r2_0001_out
     RDKit          3D

 82 86  0  0  0  0  0  0  0  0999 V2000
    2.8950   17.3360    0.5010 C   0  0  0  0  0  0  0  0  0  0  0  0
    2.4760   17.4840   -0.9640 C   0  0  2  0  0  0  0  0  0  0  0  0
    1.7860   18.8350   -1.2370 C   0  0  0  0  0  0  0  0  0  0  0  0
    1.3680   19.5810    0.0330 C   0  0  0  0  0  0  0  0  0  0  0  0
   -0.0030   20.1720   -0.0970 C   0  0  2  0  0  0  0  0  0  0  0  0
   -0.7640   20.1940    1.1180 O   0  0  0  0  0  0  0  0  0  0  0  0
   -1.2800   19.3680    0.0620 C   0  0  0  0  0  0  0  0  0  0  0  0
   -1.2460   17.9020    0.3650 C   0  0  0  0  0  0  0  0  0  0  0  0
   -2.5390   19.8940   -0.5550 C   0  0  0  0  0  0  0  0  0  0  0  0
    1.5510   16.3380   -1.3570 C   0  0  1  0  0  0  0  0  0  0  0  0
    0.7560   16.6310   -2.6580 C   0  0  0  0  0  0  0  0  0  0  0  0
    0.6080   15.2810   -3.4050 C   0  0  0  0  0  0  0  0  0  0  0  0
    1.0230   14.2130   -2.3670 C   0  0  1  0  0  0  0  0  0  0  0  0
   -0.2430   14.0040   -1.4780 C   0  0  0  0  0  0  0  0  0  0  0  0
    1.5540   12.8600   -2.9430 C   0  0  2  0  0  0  0  0  0  0  0  0
    0.5390   12.0650   -3.7830 C   0  0  0  0  0  0  0  0  0  0  0  0
   -0.2960   11.0900   -3.0210 C   0  0  0  0  0  0  0  0  0  0  0  0
   -0.0450   10.6540   -1.7730 C   0  0  0  0  0  0  0  0  0  0  0  0
    1.2310   11.0730   -1.0330 C   0  0  1  0  0  0  0  0  0  0  0  0
    1.8850    9.8270   -0.3810 C   0  0  0  0  0  0  0  0  0  0  0  0
    0.9170    9.0600    0.5150 C   0  0  0  0  0  0  0  0  0  0  0  0
   -0.3120    8.6100   -0.2700 C   0  0  2  0  0  0  0  0  0  0  0  0
    0.0900    7.6360   -1.2390 O   0  0  0  0  0  0  0  0  0  0  0  0
   -1.0490    9.7800   -0.9800 C   0  0  0  0  0  0  0  0  0  0  0  0
   -1.7440   10.6740    0.0760 C   0  0  0  0  0  0  0  0  0  0  0  0
   -2.1830    9.1730   -1.8500 C   0  0  0  0  0  0  0  0  0  0  0  0
    2.2680   11.9360   -1.8740 C   0  0  1  0  0  0  0  0  0  0  0  0
    3.2240   10.9940   -2.6670 C   0  0  0  0  0  0  0  0  0  0  0  0
    3.1750   12.7580   -0.8840 C   0  0  0  0  0  0  0  0  0  0  0  0
    2.6510   14.1390   -0.4450 C   0  0  0  0  0  0  0  0  0  0  0  0
    2.2050   14.9660   -1.6550 C   0  0  2  0  0  0  0  0  0  0  0  0
    3.4630   15.2110   -2.5570 C   0  0  0  0  0  0  0  0  0  0  0  0
    2.0596   17.6311    1.1529 H   0  0  0  0  0  0  0  0  0  0  0  0
    3.1641   16.2884    0.7014 H   0  0  0  0  0  0  0  0  0  0  0  0
    3.7624   17.9822    0.7014 H   0  0  0  0  0  0  0  0  0  0  0  0
    3.3901   17.4512   -1.5751 H   0  0  0  0  0  0  0  0  0  0  0  0
    2.4825   19.4728   -1.8010 H   0  0  0  0  0  0  0  0  0  0  0  0
    0.8660   18.6179   -1.7995 H   0  0  0  0  0  0  0  0  0  0  0  0
    1.3740   18.8770    0.8782 H   0  0  0  0  0  0  0  0  0  0  0  0
    2.0810   20.4021    0.1987 H   0  0  0  0  0  0  0  0  0  0  0  0
    0.3431   20.8595   -0.8829 H   0  0  0  0  0  0  0  0  0  0  0  0
   -1.2425   17.7528    1.4548 H   0  0  0  0  0  0  0  0  0  0  0  0
   -2.1331   17.4173   -0.0686 H   0  0  0  0  0  0  0  0  0  0  0  0
   -0.3373   17.4589   -0.0686 H   0  0  0  0  0  0  0  0  0  0  0  0
   -3.2416   20.1875    0.2389 H   0  0  0  0  0  0  0  0  0  0  0  0
   -2.3039   20.7692   -1.1786 H   0  0  0  0  0  0  0  0  0  0  0  0
   -2.9964   19.1117   -1.1786 H   0  0  0  0  0  0  0  0  0  0  0  0
    0.9402   16.2733   -0.4444 H   0  0  0  0  0  0  0  0  0  0  0  0
   -0.2357   17.0387   -2.4123 H   0  0  0  0  0  0  0  0  0  0  0  0
    1.2777   17.3722   -3.2813 H   0  0  0  0  0  0  0  0  0  0  0  0
   -0.4328   15.1268   -3.7258 H   0  0  0  0  0  0  0  0  0  0  0  0
    1.2234   15.2387   -4.3157 H   0  0  0  0  0  0  0  0  0  0  0  0
    0.0424   14.0511   -0.4167 H   0  0  0  0  0  0  0  0  0  0  0  0
   -0.9780   14.7930   -1.6954 H   0  0  0  0  0  0  0  0  0  0  0  0
   -0.6854   13.0207   -1.6954 H   0  0  0  0  0  0  0  0  0  0  0  0
    2.3303   13.1926   -3.6478 H   0  0  0  0  0  0  0  0  0  0  0  0
   -0.1368   12.7840   -4.2692 H   0  0  0  0  0  0  0  0  0  0  0  0
    1.1321   11.4684   -4.4918 H   0  0  0  0  0  0  0  0  0  0  0  0
   -1.1920   10.6947   -3.5219 H   0  0  0  0  0  0  0  0  0  0  0  0
    0.9114   11.7784   -0.2518 H   0  0  0  0  0  0  0  0  0  0  0  0
    2.2356    9.1549   -1.1781 H   0  0  0  0  0  0  0  0  0  0  0  0
    2.7167   10.1769    0.2482 H   0  0  0  0  0  0  0  0  0  0  0  0
    1.4278    8.1752    0.9226 H   0  0  0  0  0  0  0  0  0  0  0  0
    0.5903    9.7241    1.3288 H   0  0  0  0  0  0  0  0  0  0  0  0
   -1.0244    8.1826    0.4510 H   0  0  0  0  0  0  0  0  0  0  0  0
    0.2350    6.7970   -0.7700 H   0  0  0  0  0  0  0  0  0  0  0  0
   -1.4745   10.3273    1.0845 H   0  0  0  0  0  0  0  0  0  0  0  0
   -1.4166   11.7162   -0.0532 H   0  0  0  0  0  0  0  0  0  0  0  0
   -2.8347   10.6137   -0.0532 H   0  0  0  0  0  0  0  0  0  0  0  0
   -2.9630    8.7555   -1.1964 H   0  0  0  0  0  0  0  0  0  0  0  0
   -2.6185    9.9586   -2.4849 H   0  0  0  0  0  0  0  0  0  0  0  0
   -1.7708    8.3749   -2.4849 H   0  0  0  0  0  0  0  0  0  0  0  0
    3.8246   10.4022   -1.9606 H   0  0  0  0  0  0  0  0  0  0  0  0
    2.6306   10.3178   -3.3000 H   0  0  0  0  0  0  0  0  0  0  0  0
    3.8914   11.5973   -3.3000 H   0  0  0  0  0  0  0  0  0  0  0  0
    3.3129   12.1508    0.0228 H   0  0  0  0  0  0  0  0  0  0  0  0
    4.0982   12.9657   -1.4449 H   0  0  0  0  0  0  0  0  0  0  0  0
    1.7948   14.0006    0.2316 H   0  0  0  0  0  0  0  0  0  0  0  0
    3.4632   14.6760    0.0668 H   0  0  0  0  0  0  0  0  0  0  0  0
    4.3432   15.3824   -1.9199 H   0  0  0  0  0  0  0  0  0  0  0  0
    3.6361   14.3297   -3.1921 H   0  0  0  0  0  0  0  0  0  0  0  0
    3.2927   16.0929   -3.1921 H   0  0  0  0  0  0  0  0  0  0  0  0
  1  2  1  0
  2  3  1  0
  3  4  1  0
  4  5  1  0
  5  6  1  0
  6  7  1  0
  7  8  1  0
  7  9  1  0
  2 10  1  0
 10 11  1  0
 11 12  1  0
 12 13  1  0
 13 14  1  1
 13 15  1  0
 15 16  1  0
 16 17  1  0
 17 18  2  0
 18 19  1  0
 19 20  1  0
 20 21  1  0
 21 22  1  0
 22 23  1  0
 22 24  1  0
 24 25  1  0
 24 26  1  0
 19 27  1  0
 27 28  1  6
 27 29  1  0
 29 30  1  0
 30 31  1  0
 31 32  1  6
  7  5  1  0
 31 10  1  0
 31 13  1  0
 27 15  1  0
 24 18  1  0
  1 33  1  0
  1 34  1  0
  1 35  1  0
  2 36  1  6
  3 37  1  0
  3 38  1  0
  4 39  1  0
  4 40  1  0
  5 41  1  6
  8 42  1  0
  8 43  1  0
  8 44  1  0
  9 45  1  0
  9 46  1  0
  9 47  1  0
 10 48  1  1
 11 49  1  0
 11 50  1  0
 12 51  1  0
 12 52  1  0
 14 53  1  0
 14 54  1  0
 14 55  1  0
 15 56  1  6
 16 57  1  0
 16 58  1  0
 17 59  1  0
 19 60  1  1
 20 61  1  0
 20 62  1  0
 21 63  1  0
 21 64  1  0
 22 65  1  1
 23 66  1  0
 25 67  1  0
 25 68  1  0
 25 69  1  0
 26 70  1  0
 26 71  1  0
 26 72  1  0
 28 73  1  0
 28 74  1  0
 28 75  1  0
 29 76  1  0
 29 77  1  0
 30 78  1  0
 30 79  1  0
 32 80  1  0
 32 81  1  0
 32 82  1  0
M  END
>  <meeko>  (5) 
{"is_sidechain": [false], "intermolecular_energy": 2.731, "internal_energy": -0.839}

$$$$
EPH_relaxed_0001_pdb2pqr_Repair_325_r2_0001_out
     RDKit          3D

 82 86  0  0  0  0  0  0  0  0999 V2000
   -1.1080    7.9190   -1.3070 C   0  0  0  0  0  0  0  0  0  0  0  0
   -1.1930    8.9730   -0.1990 C   0  0  2  0  0  0  0  0  0  0  0  0
   -2.5300    9.7390   -0.2270 C   0  0  0  0  0  0  0  0  0  0  0  0
   -3.7550    8.8470   -0.0020 C   0  0  0  0  0  0  0  0  0  0  0  0
   -4.5020    8.5990   -1.2780 C   0  0  2  0  0  0  0  0  0  0  0  0
   -5.9080    8.8660   -1.2090 O   0  0  0  0  0  0  0  0  0  0  0  0
   -5.5330    7.4980   -1.4420 C   0  0  0  0  0  0  0  0  0  0  0  0
   -5.8740    6.5740   -0.3160 C   0  0  0  0  0  0  0  0  0  0  0  0
   -5.8480    7.0140   -2.8230 C   0  0  0  0  0  0  0  0  0  0  0  0
   -0.0300    9.9510   -0.3220 C   0  0  1  0  0  0  0  0  0  0  0  0
    1.3460    9.2360   -0.4030 C   0  0  0  0  0  0  0  0  0  0  0  0
    2.2340   10.0830   -1.3490 C   0  0  0  0  0  0  0  0  0  0  0  0
    1.4670   11.4160   -1.5150 C   0  0  1  0  0  0  0  0  0  0  0  0
    1.8190   12.2430   -0.2390 C   0  0  0  0  0  0  0  0  0  0  0  0
    1.7580   12.2220   -2.8230 C   0  0  2  0  0  0  0  0  0  0  0  0
    3.2100   12.7040   -2.9850 C   0  0  0  0  0  0  0  0  0  0  0  0
    3.5000   14.0560   -2.4220 C   0  0  0  0  0  0  0  0  0  0  0  0
    2.5770   14.9690   -2.0670 C   0  0  0  0  0  0  0  0  0  0  0  0
    1.0840   14.7170   -2.3130 C   0  0  1  0  0  0  0  0  0  0  0  0
    0.4420   15.9810   -2.9440 C   0  0  0  0  0  0  0  0  0  0  0  0
    0.6940   17.2390   -2.1190 C   0  0  0  0  0  0  0  0  0  0  0  0
    2.1900   17.4880   -1.9460 C   0  0  2  0  0  0  0  0  0  0  0  0
    2.7550   17.8050   -3.2220 O   0  0  0  0  0  0  0  0  0  0  0  0
    2.9450   16.2790   -1.3270 C   0  0  0  0  0  0  0  0  0  0  0  0
    2.5460   16.1240    0.1620 C   0  0  0  0  0  0  0  0  0  0  0  0
    4.4620   16.6070   -1.3380 C   0  0  0  0  0  0  0  0  0  0  0  0
    0.7270   13.3890   -3.1080 C   0  0  1  0  0  0  0  0  0  0  0  0
    0.7730   13.6590   -4.6430 C   0  0  0  0  0  0  0  0  0  0  0  0
   -0.7550   12.9720   -2.7750 C   0  0  0  0  0  0  0  0  0  0  0  0
   -0.9640   12.0770   -1.5390 C   0  0  0  0  0  0  0  0  0  0  0  0
   -0.0090   10.8790   -1.5610 C   0  0  2  0  0  0  0  0  0  0  0  0
   -0.3540   10.0170   -2.8230 C   0  0  0  0  0  0  0  0  0  0  0  0
   -1.0273    6.9188   -0.8562 H   0  0  0  0  0  0  0  0  0  0  0  0
   -2.0130    7.9684   -1.9303 H   0  0  0  0  0  0  0  0  0  0  0  0
   -0.2226    8.1128   -1.9303 H   0  0  0  0  0  0  0  0  0  0  0  0
   -1.1354    8.4453    0.7644 H   0  0  0  0  0  0  0  0  0  0  0  0
   -2.5082   10.5048    0.5624 H   0  0  0  0  0  0  0  0  0  0  0  0
   -2.6299   10.1752   -1.2319 H   0  0  0  0  0  0  0  0  0  0  0  0
   -3.4230    7.8826    0.4099 H   0  0  0  0  0  0  0  0  0  0  0  0
   -4.4308    9.3622    0.6965 H   0  0  0  0  0  0  0  0  0  0  0  0
   -3.6231    8.8816   -1.8761 H   0  0  0  0  0  0  0  0  0  0  0  0
   -5.6873    7.0799    0.6428 H   0  0  0  0  0  0  0  0  0  0  0  0
   -6.9353    6.2923   -0.3814 H   0  0  0  0  0  0  0  0  0  0  0  0
   -5.2501    5.6704   -0.3814 H   0  0  0  0  0  0  0  0  0  0  0  0
   -6.4471    6.0935   -2.7612 H   0  0  0  0  0  0  0  0  0  0  0  0
   -6.4170    7.7863   -3.3613 H   0  0  0  0  0  0  0  0  0  0  0  0
   -4.9114    6.8065   -3.3613 H   0  0  0  0  0  0  0  0  0  0  0  0
   -0.1917   10.5447    0.5898 H   0  0  0  0  0  0  0  0  0  0  0  0
    1.8030    9.1794    0.5960 H   0  0  0  0  0  0  0  0  0  0  0  0
    1.2359    8.2082   -0.7792 H   0  0  0  0  0  0  0  0  0  0  0  0
    3.2231   10.2574   -0.9004 H   0  0  0  0  0  0  0  0  0  0  0  0
    2.4134    9.5824   -2.3119 H   0  0  0  0  0  0  0  0  0  0  0  0
    1.5696   11.6571    0.6580 H   0  0  0  0  0  0  0  0  0  0  0  0
    2.8941   12.4756   -0.2378 H   0  0  0  0  0  0  0  0  0  0  0  0
    1.2413   13.1791   -0.2378 H   0  0  0  0  0  0  0  0  0  0  0  0
    1.6070   11.4630   -3.6048 H   0  0  0  0  0  0  0  0  0  0  0  0
    3.8669   11.9786   -2.4827 H   0  0  0  0  0  0  0  0  0  0  0  0
    3.3857   12.7814   -4.0681 H   0  0  0  0  0  0  0  0  0  0  0  0
    4.5569   14.3289   -2.2859 H   0  0  0  0  0  0  0  0  0  0  0  0
    0.6407   14.5280   -1.3242 H   0  0  0  0  0  0  0  0  0  0  0  0
    0.8655   16.1275   -3.9486 H   0  0  0  0  0  0  0  0  0  0  0  0
   -0.6454   15.8193   -2.9826 H   0  0  0  0  0  0  0  0  0  0  0  0
    0.2424   18.1016   -2.6309 H   0  0  0  0  0  0  0  0  0  0  0  0
    0.2437   17.1025   -1.1247 H   0  0  0  0  0  0  0  0  0  0  0  0
    2.3055   18.3244   -1.2409 H   0  0  0  0  0  0  0  0  0  0  0  0
    3.7030   17.5930   -3.1850 H   0  0  0  0  0  0  0  0  0  0  0  0
    3.3807   16.4482    0.8009 H   0  0  0  0  0  0  0  0  0  0  0  0
    1.6618   16.7441    0.3711 H   0  0  0  0  0  0  0  0  0  0  0  0
    2.3123   15.0697    0.3711 H   0  0  0  0  0  0  0  0  0  0  0  0
    4.8276   16.6860   -0.3035 H   0  0  0  0  0  0  0  0  0  0  0  0
    5.0066   15.8059   -1.8591 H   0  0  0  0  0  0  0  0  0  0  0  0
    4.6270   17.5616   -1.8591 H   0  0  0  0  0  0  0  0  0  0  0  0
    0.9553   14.7290   -4.8218 H   0  0  0  0  0  0  0  0  0  0  0  0
    1.5835   13.0684   -5.0951 H   0  0  0  0  0  0  0  0  0  0  0  0
   -0.1873   13.3701   -5.0951 H   0  0  0  0  0  0  0  0  0  0  0  0
   -1.3332   13.8947   -2.6192 H   0  0  0  0  0  0  0  0  0  0  0  0
   -1.0813   12.3621   -3.6303 H   0  0  0  0  0  0  0  0  0  0  0  0
   -0.7779   12.6688   -0.6307 H   0  0  0  0  0  0  0  0  0  0  0  0
   -1.9978   11.7014   -1.5490 H   0  0  0  0  0  0  0  0  0  0  0  0
   -0.7451    9.0397   -2.5037 H   0  0  0  0  0  0  0  0  0  0  0  0
   -1.1134   10.5368   -3.4256 H   0  0  0  0  0  0  0  0  0  0  0  0
    0.5543    9.8693   -3.4256 H   0  0  0  0  0  0  0  0  0  0  0  0
  1  2  1  0
  2  3  1  0
  3  4  1  0
  4  5  1  0
  5  6  1  0
  6  7  1  0
  7  8  1  0
  7  9  1  0
  2 10  1  0
 10 11  1  0
 11 12  1  0
 12 13  1  0
 13 14  1  1
 13 15  1  0
 15 16  1  0
 16 17  1  0
 17 18  2  0
 18 19  1  0
 19 20  1  0
 20 21  1  0
 21 22  1  0
 22 23  1  0
 22 24  1  0
 24 25  1  0
 24 26  1  0
 19 27  1  0
 27 28  1  6
 27 29  1  0
 29 30  1  0
 30 31  1  0
 31 32  1  6
  7  5  1  0
 31 10  1  0
 31 13  1  0
 27 15  1  0
 24 18  1  0
  1 33  1  0
  1 34  1  0
  1 35  1  0
  2 36  1  1
  3 37  1  0
  3 38  1  0
  4 39  1  0
  4 40  1  0
  5 41  1  6
  8 42  1  0
  8 43  1  0
  8 44  1  0
  9 45  1  0
  9 46  1  0
  9 47  1  0
 10 48  1  1
 11 49  1  0
 11 50  1  0
 12 51  1  0
 12 52  1  0
 14 53  1  0
 14 54  1  0
 14 55  1  0
 15 56  1  6
 16 57  1  0
 16 58  1  0
 17 59  1  0
 19 60  1  1
 20 61  1  0
 20 62  1  0
 21 63  1  0
 21 64  1  0
 22 65  1  1
 23 66  1  0
 25 67  1  0
 25 68  1  0
 25 69  1  0
 26 70  1  0
 26 71  1  0
 26 72  1  0
 28 73  1  0
 28 74  1  0
 28 75  1  0
 29 76  1  0
 29 77  1  0
 30 78  1  0
 30 79  1  0
 32 80  1  0
 32 81  1  0
 32 82  1  0
M  END
>  <meeko>  (6) 
{"is_sidechain": [false], "intermolecular_energy": 2.731, "internal_energy": -0.839}

$$$$
EPH_relaxed_0001_pdb2pqr_Repair_325_r2_0001_out
     RDKit          3D

 82 86  0  0  0  0  0  0  0  0999 V2000
    3.7380   17.9660   -1.2180 C   0  0  0  0  0  0  0  0  0  0  0  0
    2.7020   17.5210   -2.2540 C   0  0  2  0  0  0  0  0  0  0  0  0
    1.2840   18.0180   -1.9080 C   0  0  0  0  0  0  0  0  0  0  0  0
    1.2350   18.9350   -0.6820 C   0  0  0  0  0  0  0  0  0  0  0  0
   -0.0190   19.7550   -0.6530 C   0  0  2  0  0  0  0  0  0  0  0  0
   -0.4170   20.1930    0.6530 O   0  0  0  0  0  0  0  0  0  0  0  0
   -1.3110   19.2850   -0.0120 C   0  0  0  0  0  0  0  0  0  0  0  0
   -1.4140   17.9430    0.6440 C   0  0  0  0  0  0  0  0  0  0  0  0
   -2.5970   19.9150   -0.4480 C   0  0  0  0  0  0  0  0  0  0  0  0
    2.7060   16.0020   -2.3730 C   0  0  1  0  0  0  0  0  0  0  0  0
    4.1350   15.4200   -2.5410 C   0  0  0  0  0  0  0  0  0  0  0  0
    4.1540   14.0590   -1.7980 C   0  0  0  0  0  0  0  0  0  0  0  0
    2.6660   13.7480   -1.5150 C   0  0  1  0  0  0  0  0  0  0  0  0
    2.1190   13.1540   -2.8510 C   0  0  0  0  0  0  0  0  0  0  0  0
    2.3750   12.8060   -0.3020 C   0  0  2  0  0  0  0  0  0  0  0  0
    2.9470   11.3830   -0.4290 C   0  0  0  0  0  0  0  0  0  0  0  0
    2.0370   10.3840   -1.0630 C   0  0  0  0  0  0  0  0  0  0  0  0
    0.7140   10.5420   -1.2540 C   0  0  0  0  0  0  0  0  0  0  0  0
   -0.0160   11.7830   -0.7240 C   0  0  1  0  0  0  0  0  0  0  0  0
   -1.3220   11.3500   -0.0070 C   0  0  0  0  0  0  0  0  0  0  0  0
   -2.2130   10.4810   -0.8890 C   0  0  0  0  0  0  0  0  0  0  0  0
   -1.4710    9.2280   -1.3480 C   0  0  2  0  0  0  0  0  0  0  0  0
   -1.2180    8.4000   -0.2090 O   0  0  0  0  0  0  0  0  0  0  0  0
   -0.1340    9.5400   -2.0760 C   0  0  0  0  0  0  0  0  0  0  0  0
   -0.4290   10.1730   -3.4580 C   0  0  0  0  0  0  0  0  0  0  0  0
    0.5810    8.1910   -2.3600 C   0  0  0  0  0  0  0  0  0  0  0  0
    0.8590   12.7810    0.1510 C   0  0  1  0  0  0  0  0  0  0  0  0
    0.8470   12.3300    1.6430 C   0  0  0  0  0  0  0  0  0  0  0  0
    0.2000   14.2100    0.1130 C   0  0  0  0  0  0  0  0  0  0  0  0
    0.6180   15.1380   -1.0430 C   0  0  0  0  0  0  0  0  0  0  0  0
    2.1430   15.1920   -1.1790 C   0  0  2  0  0  0  0  0  0  0  0  0
    2.7190   15.8070    0.1420 C   0  0  0  0  0  0  0  0  0  0  0  0
    3.3414   17.7956   -0.2062 H   0  0  0  0  0  0  0  0  0  0  0  0
    4.6629   17.3858   -1.3518 H   0  0  0  0  0  0  0  0  0  0  0  0
    3.9540   19.0363   -1.3518 H   0  0  0  0  0  0  0  0  0  0  0  0
    2.9835   17.9707   -3.2176 H   0  0  0  0  0  0  0  0  0  0  0  0
    0.8898   18.5725   -2.7724 H   0  0  0  0  0  0  0  0  0  0  0  0
    0.6813   17.1294   -1.6691 H   0  0  0  0  0  0  0  0  0  0  0  0
    1.2781   18.3173    0.2272 H   0  0  0  0  0  0  0  0  0  0  0  0
    2.0927   19.6218   -0.7330 H   0  0  0  0  0  0  0  0  0  0  0  0
    0.2022   20.1720   -1.6466 H   0  0  0  0  0  0  0  0  0  0  0  0
   -1.4045   18.0674    1.7369 H   0  0  0  0  0  0  0  0  0  0  0  0
   -2.3521   17.4566    0.3385 H   0  0  0  0  0  0  0  0  0  0  0  0
   -0.5611   17.3191    0.3385 H   0  0  0  0  0  0  0  0  0  0  0  0
   -3.1833   20.2022    0.4373 H   0  0  0  0  0  0  0  0  0  0  0  0
   -2.3812   20.8094   -1.0509 H   0  0  0  0  0  0  0  0  0  0  0  0
   -3.1715   19.1963   -1.0509 H   0  0  0  0  0  0  0  0  0  0  0  0
    2.0505   15.8850   -3.2486 H   0  0  0  0  0  0  0  0  0  0  0  0
    4.3610   15.2726   -3.6074 H   0  0  0  0  0  0  0  0  0  0  0  0
    4.8912   16.1049   -2.1300 H   0  0  0  0  0  0  0  0  0  0  0  0
    4.6005   13.2776   -2.4304 H   0  0  0  0  0  0  0  0  0  0  0  0
    4.7550   14.0948   -0.8774 H   0  0  0  0  0  0  0  0  0  0  0  0
    1.3893   12.3616   -2.6283 H   0  0  0  0  0  0  0  0  0  0  0  0
    1.6305   13.9493   -3.4330 H   0  0  0  0  0  0  0  0  0  0  0  0
    2.9518   12.7325   -3.4330 H   0  0  0  0  0  0  0  0  0  0  0  0
    2.9424   13.2851    0.5095 H   0  0  0  0  0  0  0  0  0  0  0  0
    3.8646   11.4382   -1.0331 H   0  0  0  0  0  0  0  0  0  0  0  0
    3.1167   11.0305    0.5991 H   0  0  0  0  0  0  0  0  0  0  0  0
    2.4855    9.4388   -1.4028 H   0  0  0  0  0  0  0  0  0  0  0  0
   -0.2601   12.3920   -1.6069 H   0  0  0  0  0  0  0  0  0  0  0  0
   -1.0564   10.7804    0.8958 H   0  0  0  0  0  0  0  0  0  0  0  0
   -1.8850   12.2619    0.2407 H   0  0  0  0  0  0  0  0  0  0  0  0
   -3.1041   10.1825   -0.3173 H   0  0  0  0  0  0  0  0  0  0  0  0
   -2.5024   11.0625   -1.7767 H   0  0  0  0  0  0  0  0  0  0  0  0
   -2.1121    8.7131   -2.0787 H   0  0  0  0  0  0  0  0  0  0  0  0
   -1.8160    7.6350   -0.2620 H   0  0  0  0  0  0  0  0  0  0  0  0
   -0.8899   11.1619   -3.3175 H   0  0  0  0  0  0  0  0  0  0  0  0
    0.5107   10.2828   -4.0191 H   0  0  0  0  0  0  0  0  0  0  0  0
   -1.1174    9.5240   -4.0191 H   0  0  0  0  0  0  0  0  0  0  0  0
    0.8386    7.7049   -1.4075 H   0  0  0  0  0  0  0  0  0  0  0  0
   -0.0882    7.5357   -2.9369 H   0  0  0  0  0  0  0  0  0  0  0  0
    1.4990    8.3769   -2.9369 H   0  0  0  0  0  0  0  0  0  0  0  0
    0.8706   13.2163    2.2941 H   0  0  0  0  0  0  0  0  0  0  0  0
   -0.0669   11.7516    1.8439 H   0  0  0  0  0  0  0  0  0  0  0  0
    1.7288   11.7038    1.8439 H   0  0  0  0  0  0  0  0  0  0  0  0
   -0.8896   14.0722    0.0516 H   0  0  0  0  0  0  0  0  0  0  0  0
    0.5509   14.7127    1.0263 H   0  0  0  0  0  0  0  0  0  0  0  0
    0.1862   14.7605   -1.9816 H   0  0  0  0  0  0  0  0  0  0  0  0
    0.2488   16.1520   -0.8297 H   0  0  0  0  0  0  0  0  0  0  0  0
    2.2561   15.3127    1.0089 H   0  0  0  0  0  0  0  0  0  0  0  0
    3.8082   15.6560    0.1723 H   0  0  0  0  0  0  0  0  0  0  0  0
    2.4971   16.8840    0.1723 H   0  0  0  0  0  0  0  0  0  0  0  0
  1  2  1  0
  2  3  1  0
  3  4  1  0
  4  5  1  0
  5  6  1  0
  6  7  1  0
  7  8  1  0
  7  9  1  0
  2 10  1  0
 10 11  1  0
 11 12  1  0
 12 13  1  0
 13 14  1  6
 13 15  1  0
 15 16  1  0
 16 17  1  0
 17 18  2  0
 18 19  1  0
 19 20  1  0
 20 21  1  0
 21 22  1  0
 22 23  1  0
 22 24  1  0
 24 25  1  0
 24 26  1  0
 19 27  1  0
 27 28  1  1
 27 29  1  0
 29 30  1  0
 30 31  1  0
 31 32  1  1
  7  5  1  0
 31 10  1  0
 31 13  1  0
 27 15  1  0
 24 18  1  0
  1 33  1  0
  1 34  1  0
  1 35  1  0
  2 36  1  6
  3 37  1  0
  3 38  1  0
  4 39  1  0
  4 40  1  0
  5 41  1  6
  8 42  1  0
  8 43  1  0
  8 44  1  0
  9 45  1  0
  9 46  1  0
  9 47  1  0
 10 48  1  6
 11 49  1  0
 11 50  1  0
 12 51  1  0
 12 52  1  0
 14 53  1  0
 14 54  1  0
 14 55  1  0
 15 56  1  1
 16 57  1  0
 16 58  1  0
 17 59  1  0
 19 60  1  6
 20 61  1  0
 20 62  1  0
 21 63  1  0
 21 64  1  0
 22 65  1  6
 23 66  1  0
 25 67  1  0
 25 68  1  0
 25 69  1  0
 26 70  1  0
 26 71  1  0
 26 72  1  0
 28 73  1  0
 28 74  1  0
 28 75  1  0
 29 76  1  0
 29 77  1  0
 30 78  1  0
 30 79  1  0
 32 80  1  0
 32 81  1  0
 32 82  1  0
M  END
>  <meeko>  (7) 
{"is_sidechain": [false], "intermolecular_energy": 2.731, "internal_energy": -0.839}

$$$$
EPH_relaxed_0001_pdb2pqr_Repair_325_r2_0001_out
     RDKit          3D

 82 86  0  0  0  0  0  0  0  0999 V2000
   -2.6460    7.5850   -3.0530 C   0  0  0  0  0  0  0  0  0  0  0  0
   -2.9280    7.8440   -1.5710 C   0  0  2  0  0  0  0  0  0  0  0  0
   -4.4360    7.8050   -1.2510 C   0  0  0  0  0  0  0  0  0  0  0  0
   -5.1640    6.6070   -1.8670 C   0  0  0  0  0  0  0  0  0  0  0  0
   -6.3530    7.0360   -2.6730 C   0  0  2  0  0  0  0  0  0  0  0  0
   -6.9140    8.2980   -2.2880 O   0  0  0  0  0  0  0  0  0  0  0  0
   -7.7540    7.1470   -2.1030 C   0  0  0  0  0  0  0  0  0  0  0  0
   -8.0410    6.8280   -0.6690 C   0  0  0  0  0  0  0  0  0  0  0  0
   -8.9160    7.0920   -3.0450 C   0  0  0  0  0  0  0  0  0  0  0  0
   -2.3430    9.1900   -1.1580 C   0  0  1  0  0  0  0  0  0  0  0  0
   -2.8640    9.6690    0.2230 C   0  0  0  0  0  0  0  0  0  0  0  0
   -1.6920   10.4210    0.9070 C   0  0  0  0  0  0  0  0  0  0  0  0
   -0.6570   10.6370   -0.2220 C   0  0  1  0  0  0  0  0  0  0  0  0
   -1.1700   11.8880   -1.0020 C   0  0  0  0  0  0  0  0  0  0  0  0
    0.8300   10.8080    0.2290 C   0  0  2  0  0  0  0  0  0  0  0  0
    1.1070   12.0360    1.1140 C   0  0  0  0  0  0  0  0  0  0  0  0
    1.4810   13.2810    0.3790 C   0  0  0  0  0  0  0  0  0  0  0  0
    1.8680   13.3420   -0.9090 C   0  0  0  0  0  0  0  0  0  0  0  0
    2.0530   12.0640   -1.7380 C   0  0  1  0  0  0  0  0  0  0  0  0
    3.3940   12.1410   -2.5140 C   0  0  0  0  0  0  0  0  0  0  0  0
    3.5100   13.4060   -3.3580 C   0  0  0  0  0  0  0  0  0  0  0  0
    3.3790   14.6550   -2.4910 C   0  0  2  0  0  0  0  0  0  0  0  0
    4.5100   14.7300   -1.6170 O   0  0  0  0  0  0  0  0  0  0  0  0
    2.0690   14.6850   -1.6540 C   0  0  0  0  0  0  0  0  0  0  0  0
    0.8570   14.9070   -2.5930 C   0  0  0  0  0  0  0  0  0  0  0  0
    2.1270   15.9230   -0.7200 C   0  0  0  0  0  0  0  0  0  0  0  0
    1.8820   10.6960   -0.9490 C   0  0  1  0  0  0  0  0  0  0  0  0
    3.2370   10.2830   -0.2980 C   0  0  0  0  0  0  0  0  0  0  0  0
    1.5150    9.5550   -1.9710 C   0  0  0  0  0  0  0  0  0  0  0  0
    0.0190    9.3580   -2.2840 C   0  0  0  0  0  0  0  0  0  0  0  0
   -0.8050    9.2770   -0.9960 C   0  0  2  0  0  0  0  0  0  0  0  0
   -0.3260    8.0150   -0.2000 C   0  0  0  0  0  0  0  0  0  0  0  0
   -1.8389    6.8437   -3.1486 H   0  0  0  0  0  0  0  0  0  0  0  0
   -3.5558    7.2011   -3.5377 H   0  0  0  0  0  0  0  0  0  0  0  0
   -2.3407    8.5241   -3.5377 H   0  0  0  0  0  0  0  0  0  0  0  0
   -2.4478    7.0377   -0.9972 H   0  0  0  0  0  0  0  0  0  0  0  0
   -4.5584    7.7619   -0.1587 H   0  0  0  0  0  0  0  0  0  0  0  0
   -4.8812    8.7114   -1.6872 H   0  0  0  0  0  0  0  0  0  0  0  0
   -4.4665    6.0640   -2.5217 H   0  0  0  0  0  0  0  0  0  0  0  0
   -5.5184    5.9630   -1.0487 H   0  0  0  0  0  0  0  0  0  0  0  0
   -5.9582    6.5313   -3.5671 H   0  0  0  0  0  0  0  0  0  0  0  0
   -7.4468    7.4885   -0.0204 H   0  0  0  0  0  0  0  0  0  0  0  0
   -9.1113    6.9813   -0.4664 H   0  0  0  0  0  0  0  0  0  0  0  0
   -7.7759    5.7798   -0.4664 H   0  0  0  0  0  0  0  0  0  0  0  0
   -9.8526    7.0477   -2.4698 H   0  0  0  0  0  0  0  0  0  0  0  0
   -8.9171    7.9911   -3.6787 H   0  0  0  0  0  0  0  0  0  0  0  0
   -8.8322    6.1968   -3.6787 H   0  0  0  0  0  0  0  0  0  0  0  0
   -2.6661    9.8020   -2.0130 H   0  0  0  0  0  0  0  0  0  0  0  0
   -3.7218   10.3447    0.0907 H   0  0  0  0  0  0  0  0  0  0  0  0
   -3.1989    8.8188    0.8354 H   0  0  0  0  0  0  0  0  0  0  0  0
   -2.0326   11.3855    1.3116 H   0  0  0  0  0  0  0  0  0  0  0  0
   -1.2737    9.8593    1.7552 H   0  0  0  0  0  0  0  0  0  0  0  0
   -1.4871   12.6613   -0.2869 H   0  0  0  0  0  0  0  0  0  0  0  0
   -0.3612   12.2829   -1.6344 H   0  0  0  0  0  0  0  0  0  0  0  0
   -2.0232   11.6014   -1.6344 H   0  0  0  0  0  0  0  0  0  0  0  0
    0.9813    9.9323    0.8772 H   0  0  0  0  0  0  0  0  0  0  0  0
    0.1987   12.2459    1.6979 H   0  0  0  0  0  0  0  0  0  0  0  0
    1.9781   11.7747    1.7328 H   0  0  0  0  0  0  0  0  0  0  0  0
    1.4365   14.2279    0.9370 H   0  0  0  0  0  0  0  0  0  0  0  0
    1.2125   12.0359   -2.4470 H   0  0  0  0  0  0  0  0  0  0  0  0
    4.2219   12.1232   -1.7899 H   0  0  0  0  0  0  0  0  0  0  0  0
    3.4344   11.2795   -3.1967 H   0  0  0  0  0  0  0  0  0  0  0  0
    4.4897   13.4163   -3.8582 H   0  0  0  0  0  0  0  0  0  0  0  0
    2.6985   13.4078   -4.1006 H   0  0  0  0  0  0  0  0  0  0  0  0
    3.3401   15.5227   -3.1659 H   0  0  0  0  0  0  0  0  0  0  0  0
    4.9460   13.8620   -1.6240 H   0  0  0  0  0  0  0  0  0  0  0  0
   -0.0482   15.0728   -1.9904 H   0  0  0  0  0  0  0  0  0  0  0  0
    1.0411   15.7864   -3.2277 H   0  0  0  0  0  0  0  0  0  0  0  0
    0.7175   14.0195   -3.2277 H   0  0  0  0  0  0  0  0  0  0  0  0
    2.1115   15.5920    0.3289 H   0  0  0  0  0  0  0  0  0  0  0  0
    3.0525   16.4852   -0.9134 H   0  0  0  0  0  0  0  0  0  0  0  0
    1.2581   16.5693   -0.9134 H   0  0  0  0  0  0  0  0  0  0  0  0
    3.1414   10.3121    0.7975 H   0  0  0  0  0  0  0  0  0  0  0  0
    3.5010    9.2636   -0.6161 H   0  0  0  0  0  0  0  0  0  0  0  0
    4.0247   10.9819   -0.6161 H   0  0  0  0  0  0  0  0  0  0  0  0
    2.0266    9.7797   -2.9185 H   0  0  0  0  0  0  0  0  0  0  0  0
    1.8333    8.6205   -1.4859 H   0  0  0  0  0  0  0  0  0  0  0  0
   -0.3373   10.2067   -2.8862 H   0  0  0  0  0  0  0  0  0  0  0  0
   -0.1021    8.4151   -2.8374 H   0  0  0  0  0  0  0  0  0  0  0  0
   -0.4009    8.2122    0.8796 H   0  0  0  0  0  0  0  0  0  0  0  0
   -0.9601    7.1547   -0.4604 H   0  0  0  0  0  0  0  0  0  0  0  0
    0.7192    7.7922   -0.4604 H   0  0  0  0  0  0  0  0  0  0  0  0
  1  2  1  0
  2  3  1  0
  3  4  1  0
  4  5  1  0
  5  6  1  0
  6  7  1  0
  7  8  1  0
  7  9  1  0
  2 10  1  0
 10 11  1  0
 11 12  1  0
 12 13  1  0
 13 14  1  6
 13 15  1  0
 15 16  1  0
 16 17  1  0
 17 18  2  0
 18 19  1  0
 19 20  1  0
 20 21  1  0
 21 22  1  0
 22 23  1  0
 22 24  1  0
 24 25  1  0
 24 26  1  0
 19 27  1  0
 27 28  1  1
 27 29  1  0
 29 30  1  0
 30 31  1  0
 31 32  1  1
  7  5  1  0
 31 10  1  0
 31 13  1  0
 27 15  1  0
 24 18  1  0
  1 33  1  0
  1 34  1  0
  1 35  1  0
  2 36  1  1
  3 37  1  0
  3 38  1  0
  4 39  1  0
  4 40  1  0
  5 41  1  6
  8 42  1  0
  8 43  1  0
  8 44  1  0
  9 45  1  0
  9 46  1  0
  9 47  1  0
 10 48  1  6
 11 49  1  0
 11 50  1  0
 12 51  1  0
 12 52  1  0
 14 53  1  0
 14 54  1  0
 14 55  1  0
 15 56  1  1
 16 57  1  0
 16 58  1  0
 17 59  1  0
 19 60  1  6
 20 61  1  0
 20 62  1  0
 21 63  1  0
 21 64  1  0
 22 65  1  6
 23 66  1  0
 25 67  1  0
 25 68  1  0
 25 69  1  0
 26 70  1  0
 26 71  1  0
 26 72  1  0
 28 73  1  0
 28 74  1  0
 28 75  1  0
 29 76  1  0
 29 77  1  0
 30 78  1  0
 30 79  1  0
 32 80  1  0
 32 81  1  0
 32 82  1  0
M  END
>  <meeko>  (8) 
{"is_sidechain": [false], "intermolecular_energy": 2.731, "internal_energy": -0.839}

$$$$
EPH_relaxed_0001_pdb2pqr_Repair_325_r2_0001_out
     RDKit          3D

 82 86  0  0  0  0  0  0  0  0999 V2000
    4.4820   17.5190   -2.1660 C   0  0  0  0  0  0  0  0  0  0  0  0
    3.0110   17.1040   -2.2730 C   0  0  2  0  0  0  0  0  0  0  0  0
    2.1780   17.6050   -1.0770 C   0  0  0  0  0  0  0  0  0  0  0  0
    2.6300   18.9650   -0.5380 C   0  0  0  0  0  0  0  0  0  0  0  0
    2.9110   18.9120    0.9340 C   0  0  2  0  0  0  0  0  0  0  0  0
    3.1680   20.1850    1.5400 O   0  0  0  0  0  0  0  0  0  0  0  0
    4.2600   19.2520    1.5400 C   0  0  0  0  0  0  0  0  0  0  0  0
    5.4170   19.6680    0.6870 C   0  0  0  0  0  0  0  0  0  0  0  0
    4.5910   18.7110    2.8970 C   0  0  0  0  0  0  0  0  0  0  0  0
    2.9060   15.5880   -2.3830 C   0  0  1  0  0  0  0  0  0  0  0  0
    4.2870   14.9050   -2.5700 C   0  0  0  0  0  0  0  0  0  0  0  0
    4.2220   13.5510   -1.8180 C   0  0  0  0  0  0  0  0  0  0  0  0
    2.7200   13.3480   -1.5090 C   0  0  1  0  0  0  0  0  0  0  0  0
    2.1110   12.7860   -2.8320 C   0  0  0  0  0  0  0  0  0  0  0  0
    2.3830   12.4350   -0.2860 C   0  0  2  0  0  0  0  0  0  0  0  0
    2.8500   10.9750   -0.4130 C   0  0  0  0  0  0  0  0  0  0  0  0
    1.8610   10.0390   -1.0250 C   0  0  0  0  0  0  0  0  0  0  0  0
    0.5500   10.2900   -1.1960 C   0  0  0  0  0  0  0  0  0  0  0  0
   -0.0810   11.5820   -0.6630 C   0  0  1  0  0  0  0  0  0  0  0  0
   -1.4020   11.2470    0.0780 C   0  0  0  0  0  0  0  0  0  0  0  0
   -2.3680   10.4390   -0.7840 C   0  0  0  0  0  0  0  0  0  0  0  0
   -1.7240    9.1340   -1.2460 C   0  0  2  0  0  0  0  0  0  0  0  0
   -1.5110    8.2960   -0.1070 O   0  0  0  0  0  0  0  0  0  0  0  0
   -0.3800    9.3460   -1.9980 C   0  0  0  0  0  0  0  0  0  0  0  0
   -0.6530    9.9910   -3.3800 C   0  0  0  0  0  0  0  0  0  0  0  0
    0.2320    7.9480   -2.2840 C   0  0  0  0  0  0  0  0  0  0  0  0
    0.8760   12.5200    0.1910 C   0  0  1  0  0  0  0  0  0  0  0  0
    0.8570   12.0790    1.6870 C   0  0  0  0  0  0  0  0  0  0  0  0
    0.3200   13.9930    0.1550 C   0  0  0  0  0  0  0  0  0  0  0  0
    0.7840   14.8820   -1.0140 C   0  0  0  0  0  0  0  0  0  0  0  0
    2.3060   14.8270   -1.1740 C   0  0  2  0  0  0  0  0  0  0  0  0
    2.9460   15.4070    0.1330 C   0  0  0  0  0  0  0  0  0  0  0  0
    4.7643   17.5986   -1.1058 H   0  0  0  0  0  0  0  0  0  0  0  0
    5.1128   16.7637   -2.6577 H   0  0  0  0  0  0  0  0  0  0  0  0
    4.6250   18.4926   -2.6577 H   0  0  0  0  0  0  0  0  0  0  0  0
    2.6000   17.5718   -3.1798 H   0  0  0  0  0  0  0  0  0  0  0  0
    1.1286   17.6893   -1.3958 H   0  0  0  0  0  0  0  0  0  0  0  0
    2.3127   16.8764   -0.2640 H   0  0  0  0  0  0  0  0  0  0  0  0
    3.5457   19.2710   -1.0650 H   0  0  0  0  0  0  0  0  0  0  0  0
    1.8182   19.6879   -0.7066 H   0  0  0  0  0  0  0  0  0  0  0  0
    2.2453   18.0447    1.0545 H   0  0  0  0  0  0  0  0  0  0  0  0
    6.2568   19.9699    1.3301 H   0  0  0  0  0  0  0  0  0  0  0  0
    5.7262   18.8247    0.0519 H   0  0  0  0  0  0  0  0  0  0  0  0
    5.1185   20.5151    0.0519 H   0  0  0  0  0  0  0  0  0  0  0  0
    4.1817   19.3800    3.6683 H   0  0  0  0  0  0  0  0  0  0  0  0
    4.1511   17.7091    3.0096 H   0  0  0  0  0  0  0  0  0  0  0  0
    5.6833   18.6466    3.0096 H   0  0  0  0  0  0  0  0  0  0  0  0
    2.2306   15.5126   -3.2480 H   0  0  0  0  0  0  0  0  0  0  0  0
    4.4841   14.7355   -3.6388 H   0  0  0  0  0  0  0  0  0  0  0  0
    5.0966   15.5370   -2.1762 H   0  0  0  0  0  0  0  0  0  0  0  0
    4.6016   12.7361   -2.4519 H   0  0  0  0  0  0  0  0  0  0  0  0
    4.8391   13.5495   -0.9074 H   0  0  0  0  0  0  0  0  0  0  0  0
    1.3221   12.0579   -2.5922 H   0  0  0  0  0  0  0  0  0  0  0  0
    1.6818   13.6121   -3.4180 H   0  0  0  0  0  0  0  0  0  0  0  0
    2.9000   12.2920   -3.4180 H   0  0  0  0  0  0  0  0  0  0  0  0
    2.9965   12.8764    0.5132 H   0  0  0  0  0  0  0  0  0  0  0  0
    3.7588   10.9617   -1.0326 H   0  0  0  0  0  0  0  0  0  0  0  0
    3.0114   10.6172    0.6146 H   0  0  0  0  0  0  0  0  0  0  0  0
    2.2354    9.0620   -1.3647 H   0  0  0  0  0  0  0  0  0  0  0  0
   -0.2956   12.2015   -1.5463 H   0  0  0  0  0  0  0  0  0  0  0  0
   -1.1624   10.6645    0.9798 H   0  0  0  0  0  0  0  0  0  0  0  0
   -1.8943   12.1981    0.3292 H   0  0  0  0  0  0  0  0  0  0  0  0
   -3.2685   10.2080   -0.1961 H   0  0  0  0  0  0  0  0  0  0  0  0
   -2.6307   11.0347   -1.6706 H   0  0  0  0  0  0  0  0  0  0  0  0
   -2.4128    8.6624   -1.9624 H   0  0  0  0  0  0  0  0  0  0  0  0
   -0.8470    8.7280    0.4570 H   0  0  0  0  0  0  0  0  0  0  0  0
   -1.0782   10.9956   -3.2382 H   0  0  0  0  0  0  0  0  0  0  0  0
    0.2898   10.0678   -3.9415 H   0  0  0  0  0  0  0  0  0  0  0  0
   -1.3644    9.3676   -3.9415 H   0  0  0  0  0  0  0  0  0  0  0  0
    0.4531    7.4429   -1.3322 H   0  0  0  0  0  0  0  0  0  0  0  0
   -0.4845    7.3452   -2.8612 H   0  0  0  0  0  0  0  0  0  0  0  0
    1.1610    8.0655   -2.8612 H   0  0  0  0  0  0  0  0  0  0  0  0
    0.8953   12.9691    2.3322 H   0  0  0  0  0  0  0  0  0  0  0  0
   -0.0662   11.5171    1.8919 H   0  0  0  0  0  0  0  0  0  0  0  0
    1.7284   11.4398    1.8919 H   0  0  0  0  0  0  0  0  0  0  0  0
   -0.7776   13.9335    0.1125 H   0  0  0  0  0  0  0  0  0  0  0  0
    0.7209   14.4742    1.0593 H   0  0  0  0  0  0  0  0  0  0  0  0
    0.3116   14.5303   -1.9430 H   0  0  0  0  0  0  0  0  0  0  0  0
    0.4909   15.9209   -0.8023 H   0  0  0  0  0  0  0  0  0  0  0  0
    2.4547   14.9617    1.0107 H   0  0  0  0  0  0  0  0  0  0  0  0
    4.0195   15.1677    0.1530 H   0  0  0  0  0  0  0  0  0  0  0  0
    2.8132   16.4988    0.1530 H   0  0  0  0  0  0  0  0  0  0  0  0
  1  2  1  0
  2  3  1  0
  3  4  1  0
  4  5  1  0
  5  6  1  0
  6  7  1  0
  7  8  1  0
  7  9  1  0
  2 10  1  0
 10 11  1  0
 11 12  1  0
 12 13  1  0
 13 14  1  6
 13 15  1  0
 15 16  1  0
 16 17  1  0
 17 18  2  0
 18 19  1  0
 19 20  1  0
 20 21  1  0
 21 22  1  0
 22 23  1  0
 22 24  1  0
 24 25  1  0
 24 26  1  0
 19 27  1  0
 27 28  1  1
 27 29  1  0
 29 30  1  0
 30 31  1  0
 31 32  1  1
  7  5  1  0
 31 10  1  0
 31 13  1  0
 27 15  1  0
 24 18  1  0
  1 33  1  0
  1 34  1  0
  1 35  1  0
  2 36  1  6
  3 37  1  0
  3 38  1  0
  4 39  1  0
  4 40  1  0
  5 41  1  1
  8 42  1  0
  8 43  1  0
  8 44  1  0
  9 45  1  0
  9 46  1  0
  9 47  1  0
 10 48  1  6
 11 49  1  0
 11 50  1  0
 12 51  1  0
 12 52  1  0
 14 53  1  0
 14 54  1  0
 14 55  1  0
 15 56  1  1
 16 57  1  0
 16 58  1  0
 17 59  1  0
 19 60  1  6
 20 61  1  0
 20 62  1  0
 21 63  1  0
 21 64  1  0
 22 65  1  6
 23 66  1  0
 25 67  1  0
 25 68  1  0
 25 69  1  0
 26 70  1  0
 26 71  1  0
 26 72  1  0
 28 73  1  0
 28 74  1  0
 28 75  1  0
 29 76  1  0
 29 77  1  0
 30 78  1  0
 30 79  1  0
 32 80  1  0
 32 81  1  0
 32 82  1  0
M  END
>  <meeko>  (9) 
{"is_sidechain": [false], "intermolecular_energy": 2.731, "internal_energy": -0.839}

$$$$
EPH_relaxed_0001_pdb2pqr_Repair_325_r2_0001_out
     RDKit          3D

 82 86  0  0  0  0  0  0  0  0999 V2000
    3.9900   17.4810    0.4200 C   0  0  0  0  0  0  0  0  0  0  0  0
    3.7860   16.5520   -0.7800 C   0  0  2  0  0  0  0  0  0  0  0  0
    3.6340   17.3340   -2.1010 C   0  0  0  0  0  0  0  0  0  0  0  0
    3.1300   18.7680   -1.9120 C   0  0  0  0  0  0  0  0  0  0  0  0
    1.6480   18.8650   -2.1120 C   0  0  2  0  0  0  0  0  0  0  0  0
    1.1610   20.1940   -2.3420 O   0  0  0  0  0  0  0  0  0  0  0  0
    0.7160   19.5550   -1.1340 C   0  0  0  0  0  0  0  0  0  0  0  0
    1.2310   20.1930    0.1170 C   0  0  0  0  0  0  0  0  0  0  0  0
   -0.7350   19.1860   -1.1470 C   0  0  0  0  0  0  0  0  0  0  0  0
    2.5620   15.6710   -0.5540 C   0  0  1  0  0  0  0  0  0  0  0  0
    1.2700   16.4950   -0.3110 C   0  0  0  0  0  0  0  0  0  0  0  0
    0.1050   15.7000   -0.9560 C   0  0  0  0  0  0  0  0  0  0  0  0
    0.7020   14.3040   -1.2510 C   0  0  1  0  0  0  0  0  0  0  0  0
    0.6350   13.5430    0.1100 C   0  0  0  0  0  0  0  0  0  0  0  0
    0.0230   13.4920   -2.4010 C   0  0  2  0  0  0  0  0  0  0  0  0
   -1.4520   13.1280   -2.1600 C   0  0  0  0  0  0  0  0  0  0  0  0
   -1.6840   11.8200   -1.4790 C   0  0  0  0  0  0  0  0  0  0  0  0
   -0.7710   10.8430   -1.3320 C   0  0  0  0  0  0  0  0  0  0  0  0
    0.6210   10.9630   -1.9650 C   0  0  1  0  0  0  0  0  0  0  0  0
    0.9810    9.6350   -2.6810 C   0  0  0  0  0  0  0  0  0  0  0  0
    0.8620    8.4240   -1.7620 C   0  0  0  0  0  0  0  0  0  0  0  0
   -0.5520    8.3040   -1.1980 C   0  0  2  0  0  0  0  0  0  0  0  0
   -1.4510    8.0020   -2.2690 O   0  0  0  0  0  0  0  0  0  0  0  0
   -1.0280    9.5880   -0.4620 C   0  0  0  0  0  0  0  0  0  0  0  0
   -0.2450    9.7480    0.8650 C   0  0  0  0  0  0  0  0  0  0  0  0
   -2.5160    9.3870   -0.0660 C   0  0  0  0  0  0  0  0  0  0  0  0
    0.8550   12.2370   -2.8870 C   0  0  1  0  0  0  0  0  0  0  0  0
    0.3910   11.9310   -4.3440 C   0  0  0  0  0  0  0  0  0  0  0  0
    2.3990   12.5370   -2.9670 C   0  0  0  0  0  0  0  0  0  0  0  0
    2.9880   13.4430   -1.8690 C   0  0  0  0  0  0  0  0  0  0  0  0
    2.1520   14.7150   -1.7010 C   0  0  2  0  0  0  0  0  0  0  0  0
    2.2180   15.5130   -3.0480 C   0  0  0  0  0  0  0  0  0  0  0  0
    3.8645   16.9096    1.3515 H   0  0  0  0  0  0  0  0  0  0  0  0
    5.0033   17.9077    0.3853 H   0  0  0  0  0  0  0  0  0  0  0  0
    3.2488   18.2930    0.3853 H   0  0  0  0  0  0  0  0  0  0  0  0
    4.6852   15.9246   -0.8685 H   0  0  0  0  0  0  0  0  0  0  0  0
    4.6153   17.3731   -2.5965 H   0  0  0  0  0  0  0  0  0  0  0  0
    2.8809   16.8049   -2.7034 H   0  0  0  0  0  0  0  0  0  0  0  0
    3.3747   19.1005   -0.8924 H   0  0  0  0  0  0  0  0  0  0  0  0
    3.6200   19.4056   -2.6626 H   0  0  0  0  0  0  0  0  0  0  0  0
    1.6216   17.8694   -2.5790 H   0  0  0  0  0  0  0  0  0  0  0  0
    0.8124   19.6745    0.9922 H   0  0  0  0  0  0  0  0  0  0  0  0
    2.3285   20.1227    0.1394 H   0  0  0  0  0  0  0  0  0  0  0  0
    0.9308   21.2510    0.1394 H   0  0  0  0  0  0  0  0  0  0  0  0
   -1.0991   19.0934   -0.1131 H   0  0  0  0  0  0  0  0  0  0  0  0
   -1.3073   19.9672   -1.6687 H   0  0  0  0  0  0  0  0  0  0  0  0
   -0.8646   18.2263   -1.6687 H   0  0  0  0  0  0  0  0  0  0  0  0
    2.9108   15.0897    0.3123 H   0  0  0  0  0  0  0  0  0  0  0  0
    1.0947   16.6153    0.7683 H   0  0  0  0  0  0  0  0  0  0  0  0
    1.3537   17.4999   -0.7505 H   0  0  0  0  0  0  0  0  0  0  0  0
   -0.7431   15.6205   -0.2600 H   0  0  0  0  0  0  0  0  0  0  0  0
   -0.2819   16.1884   -1.8625 H   0  0  0  0  0  0  0  0  0  0  0  0
    0.6986   14.2651    0.9374 H   0  0  0  0  0  0  0  0  0  0  0  0
   -0.3151   12.9925    0.1759 H   0  0  0  0  0  0  0  0  0  0  0  0
    1.4743   12.8350    0.1759 H   0  0  0  0  0  0  0  0  0  0  0  0
    0.0210   14.2149   -3.2301 H   0  0  0  0  0  0  0  0  0  0  0  0
   -1.8999   13.9182   -1.5395 H   0  0  0  0  0  0  0  0  0  0  0  0
   -1.9092   13.0371   -3.1563 H   0  0  0  0  0  0  0  0  0  0  0  0
   -2.6859   11.6399   -1.0623 H   0  0  0  0  0  0  0  0  0  0  0  0
    1.3194   11.1390   -1.1336 H   0  0  0  0  0  0  0  0  0  0  0  0
    0.3000    9.4985   -3.5340 H   0  0  0  0  0  0  0  0  0  0  0  0
    2.0293    9.7050   -3.0068 H   0  0  0  0  0  0  0  0  0  0  0  0
    1.1004    7.5143   -2.3325 H   0  0  0  0  0  0  0  0  0  0  0  0
    1.5647    8.5481   -0.9248 H   0  0  0  0  0  0  0  0  0  0  0  0
   -0.5420    7.4984   -0.4491 H   0  0  0  0  0  0  0  0  0  0  0  0
   -2.3570    8.1040   -1.9300 H   0  0  0  0  0  0  0  0  0  0  0  0
   -0.9301    9.6080    1.7141 H   0  0  0  0  0  0  0  0  0  0  0  0
    0.5554    8.9948    0.9116 H   0  0  0  0  0  0  0  0  0  0  0  0
    0.1957   10.7548    0.9116 H   0  0  0  0  0  0  0  0  0  0  0  0
   -2.6053    9.3749    1.0303 H   0  0  0  0  0  0  0  0  0  0  0  0
   -3.1186   10.2119   -0.4739 H   0  0  0  0  0  0  0  0  0  0  0  0
   -2.8782    8.4318   -0.4739 H   0  0  0  0  0  0  0  0  0  0  0  0
   -0.5270   11.3256   -4.3169 H   0  0  0  0  0  0  0  0  0  0  0  0
    0.1919   12.8756   -4.8714 H   0  0  0  0  0  0  0  0  0  0  0  0
    1.1808   11.3760   -4.8714 H   0  0  0  0  0  0  0  0  0  0  0  0
    2.9280   11.5736   -2.9228 H   0  0  0  0  0  0  0  0  0  0  0  0
    2.5357   13.0951   -3.9050 H   0  0  0  0  0  0  0  0  0  0  0  0
    3.0008   12.8925   -0.9168 H   0  0  0  0  0  0  0  0  0  0  0  0
    4.0087   13.7303   -2.1615 H   0  0  0  0  0  0  0  0  0  0  0  0
    2.3069   16.5882   -2.8332 H   0  0  0  0  0  0  0  0  0  0  0  0
    3.0918   15.1815   -3.6282 H   0  0  0  0  0  0  0  0  0  0  0  0
    1.3016   15.3295   -3.6282 H   0  0  0  0  0  0  0  0  0  0  0  0
  1  2  1  0
  2  3  1  0
  3  4  1  0
  4  5  1  0
  5  6  1  0
  6  7  1  0
  7  8  1  0
  7  9  1  0
  2 10  1  0
 10 11  1  0
 11 12  1  0
 12 13  1  0
 13 14  1  1
 13 15  1  0
 15 16  1  0
 16 17  1  0
 17 18  2  0
 18 19  1  0
 19 20  1  0
 20 21  1  0
 21 22  1  0
 22 23  1  0
 22 24  1  0
 24 25  1  0
 24 26  1  0
 19 27  1  0
 27 28  1  6
 27 29  1  0
 29 30  1  0
 30 31  1  0
 31 32  1  6
  7  5  1  0
 31 10  1  0
 31 13  1  0
 27 15  1  0
 24 18  1  0
  1 33  1  0
  1 34  1  0
  1 35  1  0
  2 36  1  6
  3 37  1  0
  3 38  1  0
  4 39  1  0
  4 40  1  0
  5 41  1  6
  8 42  1  0
  8 43  1  0
  8 44  1  0
  9 45  1  0
  9 46  1  0
  9 47  1  0
 10 48  1  1
 11 49  1  0
 11 50  1  0
 12 51  1  0
 12 52  1  0
 14 53  1  0
 14 54  1  0
 14 55  1  0
 15 56  1  6
 16 57  1  0
 16 58  1  0
 17 59  1  0
 19 60  1  1
 20 61  1  0
 20 62  1  0
 21 63  1  0
 21 64  1  0
 22 65  1  1
 23 66  1  0
 25 67  1  0
 25 68  1  0
 25 69  1  0
 26 70  1  0
 26 71  1  0
 26 72  1  0
 28 73  1  0
 28 74  1  0
 28 75  1  0
 29 76  1  0
 29 77  1  0
 30 78  1  0
 30 79  1  0
 32 80  1  0
 32 81  1  0
 32 82  1  0
M  END
>  <meeko>  (10) 
{"is_sidechain": [false], "intermolecular_energy": 2.731, "internal_energy": -0.839}

$$$$
EPH_relaxed_0001_pdb2pqr_Repair_325_r2_0001_out
     RDKit          3D

 82 86  0  0  0  0  0  0  0  0999 V2000
    0.5230    9.0400   -2.4640 C   0  0  0  0  0  0  0  0  0  0  0  0
    1.2860   10.1910   -3.1250 C   0  0  2  0  0  0  0  0  0  0  0  0
    2.7740   10.2090   -2.7230 C   0  0  0  0  0  0  0  0  0  0  0  0
    3.7110   10.6500   -3.8500 C   0  0  0  0  0  0  0  0  0  0  0  0
    5.1020   10.8970   -3.3500 C   0  0  2  0  0  0  0  0  0  0  0  0
    5.7140   12.0940   -3.8480 O   0  0  0  0  0  0  0  0  0  0  0  0
    6.3310   10.8570   -4.2390 C   0  0  0  0  0  0  0  0  0  0  0  0
    6.2250   10.5600   -5.7020 C   0  0  0  0  0  0  0  0  0  0  0  0
    7.6660   10.6210   -3.6050 C   0  0  0  0  0  0  0  0  0  0  0  0
    0.6330   11.5210   -2.7650 C   0  0  1  0  0  0  0  0  0  0  0  0
   -0.6370   11.3460   -1.8920 C   0  0  0  0  0  0  0  0  0  0  0  0
   -0.6780   12.5490   -0.9150 C   0  0  0  0  0  0  0  0  0  0  0  0
    0.3710   13.5400   -1.4730 C   0  0  1  0  0  0  0  0  0  0  0  0
   -0.3610   14.2910   -2.6280 C   0  0  0  0  0  0  0  0  0  0  0  0
    0.9970   14.5350   -0.4430 C   0  0  2  0  0  0  0  0  0  0  0  0
    0.0020   15.5090    0.2120 C   0  0  0  0  0  0  0  0  0  0  0  0
   -0.1860   16.8060   -0.5030 C   0  0  0  0  0  0  0  0  0  0  0  0
    0.6220   17.2940   -1.4620 C   0  0  0  0  0  0  0  0  0  0  0  0
    1.9150   16.5650   -1.8490 C   0  0  1  0  0  0  0  0  0  0  0  0
    3.0800   17.5860   -1.9350 C   0  0  0  0  0  0  0  0  0  0  0  0
    2.7670   18.7540   -2.8650 C   0  0  0  0  0  0  0  0  0  0  0  0
    1.5080   19.4890   -2.4140 C   0  0  2  0  0  0  0  0  0  0  0  0
    1.7700   20.1230   -1.1580 O   0  0  0  0  0  0  0  0  0  0  0  0
    0.2700   18.5600   -2.2820 C   0  0  0  0  0  0  0  0  0  0  0  0
   -0.1970   18.1120   -3.6900 C   0  0  0  0  0  0  0  0  0  0  0  0
   -0.8940   19.3960   -1.6850 C   0  0  0  0  0  0  0  0  0  0  0  0
    2.2830   15.2920   -0.9720 C   0  0  1  0  0  0  0  0  0  0  0  0
    3.0920   15.7290    0.2870 C   0  0  0  0  0  0  0  0  0  0  0  0
    3.2310   14.3500   -1.8040 C   0  0  0  0  0  0  0  0  0  0  0  0
    2.5520   13.3080   -2.7130 C   0  0  0  0  0  0  0  0  0  0  0  0
    1.4780   12.5290   -1.9470 C   0  0  2  0  0  0  0  0  0  0  0  0
    2.1890   11.7450   -0.7910 C   0  0  0  0  0  0  0  0  0  0  0  0
    0.5877    9.1376   -1.3702 H   0  0  0  0  0  0  0  0  0  0  0  0
   -0.5320    9.0740   -2.7734 H   0  0  0  0  0  0  0  0  0  0  0  0
    0.9652    8.0815   -2.7734 H   0  0  0  0  0  0  0  0  0  0  0  0
    1.2407   10.0362   -4.2131 H   0  0  0  0  0  0  0  0  0  0  0  0
    2.8970   10.9024   -1.8779 H   0  0  0  0  0  0  0  0  0  0  0  0
    3.0489    9.1763   -2.4623 H   0  0  0  0  0  0  0  0  0  0  0  0
    3.7425    9.8616   -4.6164 H   0  0  0  0  0  0  0  0  0  0  0  0
    3.3249   11.5913   -4.2682 H   0  0  0  0  0  0  0  0  0  0  0  0
    4.8685   10.4100   -2.3917 H   0  0  0  0  0  0  0  0  0  0  0  0
    5.8583    9.5324   -5.8419 H   0  0  0  0  0  0  0  0  0  0  0  0
    5.5235   11.2665   -6.1697 H   0  0  0  0  0  0  0  0  0  0  0  0
    7.2153   10.6627   -6.1697 H   0  0  0  0  0  0  0  0  0  0  0  0
    7.5604   10.6397   -2.5102 H   0  0  0  0  0  0  0  0  0  0  0  0
    8.0530    9.6405   -3.9194 H   0  0  0  0  0  0  0  0  0  0  0  0
    8.3657   11.4094   -3.9194 H   0  0  0  0  0  0  0  0  0  0  0  0
    0.4499   11.9161   -3.7751 H   0  0  0  0  0  0  0  0  0  0  0  0
   -1.5354   11.3428   -2.5267 H   0  0  0  0  0  0  0  0  0  0  0  0
   -0.6108   10.3928   -1.3436 H   0  0  0  0  0  0  0  0  0  0  0  0
   -1.6781   13.0070   -0.9046 H   0  0  0  0  0  0  0  0  0  0  0  0
   -0.4617   12.2522    0.1219 H   0  0  0  0  0  0  0  0  0  0  0  0
   -1.0690   15.0173   -2.2023 H   0  0  0  0  0  0  0  0  0  0  0  0
    0.3781   14.8195   -3.2480 H   0  0  0  0  0  0  0  0  0  0  0  0
   -0.9083   13.5657   -3.2480 H   0  0  0  0  0  0  0  0  0  0  0  0
    1.3299   13.8625    0.3613 H   0  0  0  0  0  0  0  0  0  0  0  0
   -0.9756   15.0081    0.2700 H   0  0  0  0  0  0  0  0  0  0  0  0
    0.4265   15.7622    1.1947 H   0  0  0  0  0  0  0  0  0  0  0  0
   -1.0586   17.4140   -0.2222 H   0  0  0  0  0  0  0  0  0  0  0  0
    1.7302   16.1252   -2.8402 H   0  0  0  0  0  0  0  0  0  0  0  0
    3.2780   17.9807   -0.9275 H   0  0  0  0  0  0  0  0  0  0  0  0
    3.9556   17.0598   -2.3430 H   0  0  0  0  0  0  0  0  0  0  0  0
    3.6145   19.4553   -2.8597 H   0  0  0  0  0  0  0  0  0  0  0  0
    2.5993   18.3603   -3.8784 H   0  0  0  0  0  0  0  0  0  0  0  0
    1.2625   20.2293   -3.1897 H   0  0  0  0  0  0  0  0  0  0  0  0
    1.9520   19.4230   -0.5080 H   0  0  0  0  0  0  0  0  0  0  0  0
   -0.9875   17.3536   -3.5900 H   0  0  0  0  0  0  0  0  0  0  0  0
   -0.5893   18.9803   -4.2397 H   0  0  0  0  0  0  0  0  0  0  0  0
    0.6543   17.6840   -4.2397 H   0  0  0  0  0  0  0  0  0  0  0  0
   -0.8450   19.3608   -0.5867 H   0  0  0  0  0  0  0  0  0  0  0  0
   -0.8069   20.4393   -2.0227 H   0  0  0  0  0  0  0  0  0  0  0  0
   -1.8548   18.9803   -2.0227 H   0  0  0  0  0  0  0  0  0  0  0  0
    2.5454   15.4337    1.1948 H   0  0  0  0  0  0  0  0  0  0  0  0
    4.0776   15.2406    0.2773 H   0  0  0  0  0  0  0  0  0  0  0  0
    3.2239   16.8210    0.2773 H   0  0  0  0  0  0  0  0  0  0  0  0
    3.8588   14.9894   -2.4420 H   0  0  0  0  0  0  0  0  0  0  0  0
    3.7823   13.7626   -1.0550 H   0  0  0  0  0  0  0  0  0  0  0  0
    2.0840   13.8238   -3.5644 H   0  0  0  0  0  0  0  0  0  0  0  0
    3.3157   12.5988   -3.0650 H   0  0  0  0  0  0  0  0  0  0  0  0
    1.8415   12.1282    0.1798 H   0  0  0  0  0  0  0  0  0  0  0  0
    1.9470   10.6749   -0.8707 H   0  0  0  0  0  0  0  0  0  0  0  0
    3.2776   11.8816   -0.8707 H   0  0  0  0  0  0  0  0  0  0  0  0
  1  2  1  0
  2  3  1  0
  3  4  1  0
  4  5  1  0
  5  6  1  0
  6  7  1  0
  7  8  1  0
  7  9  1  0
  2 10  1  0
 10 11  1  0
 11 12  1  0
 12 13  1  0
 13 14  1  6
 13 15  1  0
 15 16  1  0
 16 17  1  0
 17 18  2  0
 18 19  1  0
 19 20  1  0
 20 21  1  0
 21 22  1  0
 22 23  1  0
 22 24  1  0
 24 25  1  0
 24 26  1  0
 19 27  1  0
 27 28  1  1
 27 29  1  0
 29 30  1  0
 30 31  1  0
 31 32  1  1
  7  5  1  0
 31 10  1  0
 31 13  1  0
 27 15  1  0
 24 18  1  0
  1 33  1  0
  1 34  1  0
  1 35  1  0
  2 36  1  6
  3 37  1  0
  3 38  1  0
  4 39  1  0
  4 40  1  0
  5 41  1  1
  8 42  1  0
  8 43  1  0
  8 44  1  0
  9 45  1  0
  9 46  1  0
  9 47  1  0
 10 48  1  6
 11 49  1  0
 11 50  1  0
 12 51  1  0
 12 52  1  0
 14 53  1  0
 14 54  1  0
 14 55  1  0
 15 56  1  1
 16 57  1  0
 16 58  1  0
 17 59  1  0
 19 60  1  6
 20 61  1  0
 20 62  1  0
 21 63  1  0
 21 64  1  0
 22 65  1  6
 23 66  1  0
 25 67  1  0
 25 68  1  0
 25 69  1  0
 26 70  1  0
 26 71  1  0
 26 72  1  0
 28 73  1  0
 28 74  1  0
 28 75  1  0
 29 76  1  0
 29 77  1  0
 30 78  1  0
 30 79  1  0
 32 80  1  0
 32 81  1  0
 32 82  1  0
M  END
>  <meeko>  (11) 
{"is_sidechain": [false], "intermolecular_energy": 2.731, "internal_energy": -0.839}

$$$$
EPH_relaxed_0001_pdb2pqr_Repair_325_r2_0001_out
     RDKit          3D

 82 86  0  0  0  0  0  0  0  0999 V2000
   -1.0170   10.1780   -2.2570 C   0  0  0  0  0  0  0  0  0  0  0  0
   -0.4410   10.0250   -0.8460 C   0  0  2  0  0  0  0  0  0  0  0  0
   -1.4180    9.3080    0.1060 C   0  0  0  0  0  0  0  0  0  0  0  0
   -2.8910    9.5000   -0.2650 C   0  0  0  0  0  0  0  0  0  0  0  0
   -3.5660    8.1920   -0.5490 C   0  0  2  0  0  0  0  0  0  0  0  0
   -3.8950    7.9750   -1.9280 O   0  0  0  0  0  0  0  0  0  0  0  0
   -5.0040    8.0780   -1.0200 C   0  0  0  0  0  0  0  0  0  0  0  0
   -5.8540    9.2910   -1.2330 C   0  0  0  0  0  0  0  0  0  0  0  0
   -5.7270    6.7850   -0.8040 C   0  0  0  0  0  0  0  0  0  0  0  0
   -0.0750   11.3930   -0.2840 C   0  0  1  0  0  0  0  0  0  0  0  0
    0.8010   11.2990    0.9940 C   0  0  0  0  0  0  0  0  0  0  0  0
    1.7820   12.4980    0.9540 C   0  0  0  0  0  0  0  0  0  0  0  0
    1.2260   13.4200   -0.1570 C   0  0  1  0  0  0  0  0  0  0  0  0
    0.0750   14.2220    0.5260 C   0  0  0  0  0  0  0  0  0  0  0  0
    2.2580   14.3680   -0.8500 C   0  0  2  0  0  0  0  0  0  0  0  0
    2.9190   15.4020    0.0780 C   0  0  0  0  0  0  0  0  0  0  0  0
    2.2090   16.7120    0.1810 C   0  0  0  0  0  0  0  0  0  0  0  0
    1.2500   17.1500   -0.6550 C   0  0  0  0  0  0  0  0  0  0  0  0
    0.8570   16.3380   -1.8970 C   0  0  1  0  0  0  0  0  0  0  0  0
    0.7730   17.2810   -3.1260 C   0  0  0  0  0  0  0  0  0  0  0  0
   -0.1530   18.4700   -2.8890 C   0  0  0  0  0  0  0  0  0  0  0  0
    0.3040   19.2850   -1.6820 C   0  0  2  0  0  0  0  0  0  0  0  0
    1.5620   19.8950   -1.9870 O   0  0  0  0  0  0  0  0  0  0  0  0
    0.4350   18.4380   -0.3850 C   0  0  0  0  0  0  0  0  0  0  0  0
   -0.9730   18.0280    0.1130 C   0  0  0  0  0  0  0  0  0  0  0  0
    1.0380   19.3470    0.7200 C   0  0  0  0  0  0  0  0  0  0  0  0
    1.7290   15.0400   -2.1810 C   0  0  1  0  0  0  0  0  0  0  0  0
    2.9880   15.4190   -3.0200 C   0  0  0  0  0  0  0  0  0  0  0  0
    0.8910   14.0420   -3.0640 C   0  0  0  0  0  0  0  0  0  0  0  0
   -0.0200   13.0500   -2.3160 C   0  0  0  0  0  0  0  0  0  0  0  0
    0.7460   12.3410   -1.1950 C   0  0  2  0  0  0  0  0  0  0  0  0
    1.8970   11.5070   -1.8540 C   0  0  0  0  0  0  0  0  0  0  0  0
   -2.0782   10.4599   -2.1912 H   0  0  0  0  0  0  0  0  0  0  0  0
   -0.4626   10.9600   -2.7965 H   0  0  0  0  0  0  0  0  0  0  0  0
   -0.9238    9.2240   -2.7965 H   0  0  0  0  0  0  0  0  0  0  0  0
    0.4614    9.4007   -0.9227 H   0  0  0  0  0  0  0  0  0  0  0  0
   -1.1929    8.2314    0.0884 H   0  0  0  0  0  0  0  0  0  0  0  0
   -1.2774    9.7498    1.1035 H   0  0  0  0  0  0  0  0  0  0  0  0
   -3.4078    9.9938    0.5711 H   0  0  0  0  0  0  0  0  0  0  0  0
   -2.9380   10.1151   -1.1757 H   0  0  0  0  0  0  0  0  0  0  0  0
   -3.0166    7.7036    0.2693 H   0  0  0  0  0  0  0  0  0  0  0  0
   -6.1470    9.7091   -0.2587 H   0  0  0  0  0  0  0  0  0  0  0  0
   -5.2844   10.0432   -1.7985 H   0  0  0  0  0  0  0  0  0  0  0  0
   -6.7555    9.0124   -1.7985 H   0  0  0  0  0  0  0  0  0  0  0  0
   -5.8310    6.5989    0.2751 H   0  0  0  0  0  0  0  0  0  0  0  0
   -6.7245    6.8414   -1.2642 H   0  0  0  0  0  0  0  0  0  0  0  0
   -5.1567    5.9647   -1.2642 H   0  0  0  0  0  0  0  0  0  0  0  0
   -1.0836   11.8028   -0.1266 H   0  0  0  0  0  0  0  0  0  0  0  0
    0.1682   11.3573    1.8919 H   0  0  0  0  0  0  0  0  0  0  0  0
    1.3461   10.3442    1.0294 H   0  0  0  0  0  0  0  0  0  0  0  0
    1.7959   13.0208    1.9217 H   0  0  0  0  0  0  0  0  0  0  0  0
    2.8173   12.1836    0.7559 H   0  0  0  0  0  0  0  0  0  0  0  0
    0.1770   14.1509    1.6190 H   0  0  0  0  0  0  0  0  0  0  0  0
    0.1317   15.2771    0.2203 H   0  0  0  0  0  0  0  0  0  0  0  0
   -0.8952   13.8033    0.2203 H   0  0  0  0  0  0  0  0  0  0  0  0
    3.0591   13.6726   -1.1409 H   0  0  0  0  0  0  0  0  0  0  0  0
    2.9764   14.9662    1.0864 H   0  0  0  0  0  0  0  0  0  0  0  0
    3.9023   15.6224   -0.3631 H   0  0  0  0  0  0  0  0  0  0  0  0
    2.4944   17.3751    1.0109 H   0  0  0  0  0  0  0  0  0  0  0  0
   -0.1355   15.9147   -1.6830 H   0  0  0  0  0  0  0  0  0  0  0  0
    1.7815   17.6587   -3.3502 H   0  0  0  0  0  0  0  0  0  0  0  0
    0.3624   16.7001   -3.9650 H   0  0  0  0  0  0  0  0  0  0  0  0
   -0.1478   19.1138   -3.7809 H   0  0  0  0  0  0  0  0  0  0  0  0
   -1.1673   18.0917   -2.6937 H   0  0  0  0  0  0  0  0  0  0  0  0
   -0.4679   20.0435   -1.4849 H   0  0  0  0  0  0  0  0  0  0  0  0
    1.9060   20.2860   -1.1660 H   0  0  0  0  0  0  0  0  0  0  0  0
   -0.9862   18.0242    1.2129 H   0  0  0  0  0  0  0  0  0  0  0  0
   -1.7175   18.7466   -0.2601 H   0  0  0  0  0  0  0  0  0  0  0  0
   -1.2153   17.0220   -0.2601 H   0  0  0  0  0  0  0  0  0  0  0  0
    0.7724   18.9466    1.7095 H   0  0  0  0  0  0  0  0  0  0  0  0
    2.1328   19.3727    0.6167 H   0  0  0  0  0  0  0  0  0  0  0  0
    0.6360   20.3657    0.6167 H   0  0  0  0  0  0  0  0  0  0  0  0
    3.8182   15.6689   -2.3430 H   0  0  0  0  0  0  0  0  0  0  0  0
    3.2758   14.5677   -3.6544 H   0  0  0  0  0  0  0  0  0  0  0  0
    2.7580   16.2877   -3.6544 H   0  0  0  0  0  0  0  0  0  0  0  0
    0.2536   14.6418   -3.7304 H   0  0  0  0  0  0  0  0  0  0  0  0
    1.6361   13.4172   -3.5783 H   0  0  0  0  0  0  0  0  0  0  0  0
   -0.8686   13.5983   -1.8811 H   0  0  0  0  0  0  0  0  0  0  0  0
   -0.3763   12.2934   -3.0306 H   0  0  0  0  0  0  0  0  0  0  0  0
    2.5196   11.0559   -1.0673 H   0  0  0  0  0  0  0  0  0  0  0  0
    1.4628   10.7125   -2.4787 H   0  0  0  0  0  0  0  0  0  0  0  0
    2.5167   12.1671   -2.4787 H   0  0  0  0  0  0  0  0  0  0  0  0
  1  2  1  0
  2  3  1  0
  3  4  1  0
  4  5  1  0
  5  6  1  0
  6  7  1  0
  7  8  1  0
  7  9  1  0
  2 10  1  0
 10 11  1  0
 11 12  1  0
 12 13  1  0
 13 14  1  1
 13 15  1  0
 15 16  1  0
 16 17  1  0
 17 18  2  0
 18 19  1  0
 19 20  1  0
 20 21  1  0
 21 22  1  0
 22 23  1  0
 22 24  1  0
 24 25  1  0
 24 26  1  0
 19 27  1  0
 27 28  1  6
 27 29  1  0
 29 30  1  0
 30 31  1  0
 31 32  1  6
  7  5  1  0
 31 10  1  0
 31 13  1  0
 27 15  1  0
 24 18  1  0
  1 33  1  0
  1 34  1  0
  1 35  1  0
  2 36  1  6
  3 37  1  0
  3 38  1  0
  4 39  1  0
  4 40  1  0
  5 41  1  1
  8 42  1  0
  8 43  1  0
  8 44  1  0
  9 45  1  0
  9 46  1  0
  9 47  1  0
 10 48  1  1
 11 49  1  0
 11 50  1  0
 12 51  1  0
 12 52  1  0
 14 53  1  0
 14 54  1  0
 14 55  1  0
 15 56  1  6
 16 57  1  0
 16 58  1  0
 17 59  1  0
 19 60  1  1
 20 61  1  0
 20 62  1  0
 21 63  1  0
 21 64  1  0
 22 65  1  1
 23 66  1  0
 25 67  1  0
 25 68  1  0
 25 69  1  0
 26 70  1  0
 26 71  1  0
 26 72  1  0
 28 73  1  0
 28 74  1  0
 28 75  1  0
 29 76  1  0
 29 77  1  0
 30 78  1  0
 30 79  1  0
 32 80  1  0
 32 81  1  0
 32 82  1  0
M  END
>  <meeko>  (12) 
{"is_sidechain": [false], "intermolecular_energy": 2.731, "internal_energy": -0.839}

$$$$
EPH_relaxed_0001_pdb2pqr_Repair_325_r2_0001_out
     RDKit          3D

 82 86  0  0  0  0  0  0  0  0999 V2000
   -5.0230    6.1090   -1.9200 C   0  0  0  0  0  0  0  0  0  0  0  0
   -5.4250    7.5860   -1.8820 C   0  0  2  0  0  0  0  0  0  0  0  0
   -5.2330    8.2050   -0.4830 C   0  0  0  0  0  0  0  0  0  0  0  0
   -4.2540    9.3820   -0.4590 C   0  0  0  0  0  0  0  0  0  0  0  0
   -2.8340    8.9190   -0.3320 C   0  0  2  0  0  0  0  0  0  0  0  0
   -2.0610    9.6220    0.6490 O   0  0  0  0  0  0  0  0  0  0  0  0
   -1.6390    9.7710   -0.7160 C   0  0  0  0  0  0  0  0  0  0  0  0
   -1.8100   11.1550   -1.2590 C   0  0  0  0  0  0  0  0  0  0  0  0
   -0.3430    9.0880   -1.0250 C   0  0  0  0  0  0  0  0  0  0  0  0
   -6.8750    7.7420   -2.3260 C   0  0  1  0  0  0  0  0  0  0  0  0
   -7.1720    7.0120   -3.6630 C   0  0  0  0  0  0  0  0  0  0  0  0
   -8.6230    6.4760   -3.5670 C   0  0  0  0  0  0  0  0  0  0  0  0
   -9.2220    7.1900   -2.3330 C   0  0  1  0  0  0  0  0  0  0  0  0
   -9.6440    8.6010   -2.8520 C   0  0  0  0  0  0  0  0  0  0  0  0
  -10.4060    6.4600   -1.6190 C   0  0  2  0  0  0  0  0  0  0  0  0
  -11.6670    6.2650   -2.4800 C   0  0  0  0  0  0  0  0  0  0  0  0
  -12.6690    7.3690   -2.4010 C   0  0  0  0  0  0  0  0  0  0  0  0
  -12.7000    8.3310   -1.4610 C   0  0  0  0  0  0  0  0  0  0  0  0
  -11.7150    8.3160   -0.2850 C   0  0  1  0  0  0  0  0  0  0  0  0
  -12.4820    8.5820    1.0370 C   0  0  0  0  0  0  0  0  0  0  0  0
  -13.3100    9.8620    0.9860 C   0  0  0  0  0  0  0  0  0  0  0  0
  -14.3170    9.8150   -0.1600 C   0  0  2  0  0  0  0  0  0  0  0  0
  -15.2870    8.8010    0.1200 O   0  0  0  0  0  0  0  0  0  0  0  0
  -13.6610    9.5430   -1.5420 C   0  0  0  0  0  0  0  0  0  0  0  0
  -12.8430   10.7830   -1.9830 C   0  0  0  0  0  0  0  0  0  0  0  0
  -14.7970    9.3800   -2.5870 C   0  0  0  0  0  0  0  0  0  0  0  0
  -10.7640    7.0460   -0.1940 C   0  0  1  0  0  0  0  0  0  0  0  0
  -11.4760    5.9030    0.5920 C   0  0  0  0  0  0  0  0  0  0  0  0
   -9.4810    7.4230    0.6370 C   0  0  0  0  0  0  0  0  0  0  0  0
   -8.3000    8.0310   -0.1440 C   0  0  0  0  0  0  0  0  0  0  0  0
   -7.9710    7.1890   -1.3810 C   0  0  2  0  0  0  0  0  0  0  0  0
   -7.5220    5.7710   -0.8900 C   0  0  0  0  0  0  0  0  0  0  0  0
   -4.9200    5.7305   -0.8923 H   0  0  0  0  0  0  0  0  0  0  0  0
   -5.7967    5.5319   -2.4475 H   0  0  0  0  0  0  0  0  0  0  0  0
   -4.0635    6.0036   -2.4475 H   0  0  0  0  0  0  0  0  0  0  0  0
   -4.7636    8.1263   -2.5753 H   0  0  0  0  0  0  0  0  0  0  0  0
   -6.2103    8.5589   -0.1229 H   0  0  0  0  0  0  0  0  0  0  0  0
   -4.8075    7.4202    0.1598 H   0  0  0  0  0  0  0  0  0  0  0  0
   -4.3605    9.9535   -1.3928 H   0  0  0  0  0  0  0  0  0  0  0  0
   -4.4905   10.0072    0.4147 H   0  0  0  0  0  0  0  0  0  0  0  0
   -3.1211    7.8900   -0.5941 H   0  0  0  0  0  0  0  0  0  0  0  0
   -1.8980   11.8676   -0.4256 H   0  0  0  0  0  0  0  0  0  0  0  0
   -0.9375   11.4175   -1.8753 H   0  0  0  0  0  0  0  0  0  0  0  0
   -2.7202   11.1972   -1.8753 H   0  0  0  0  0  0  0  0  0  0  0  0
    0.1637    8.8209   -0.0859 H   0  0  0  0  0  0  0  0  0  0  0  0
   -0.5390    8.1761   -1.6081 H   0  0  0  0  0  0  0  0  0  0  0  0
    0.2985    9.7652   -1.6081 H   0  0  0  0  0  0  0  0  0  0  0  0
   -6.9368    8.8393   -2.3729 H   0  0  0  0  0  0  0  0  0  0  0  0
   -7.0822    7.7134   -4.5056 H   0  0  0  0  0  0  0  0  0  0  0  0
   -6.4585    6.1921   -3.8323 H   0  0  0  0  0  0  0  0  0  0  0  0
   -9.1908    6.7278   -4.4749 H   0  0  0  0  0  0  0  0  0  0  0  0
   -8.6576    5.3806   -3.4726 H   0  0  0  0  0  0  0  0  0  0  0  0
   -9.8419    9.2626   -1.9957 H   0  0  0  0  0  0  0  0  0  0  0  0
   -8.8332    9.0246   -3.4629 H   0  0  0  0  0  0  0  0  0  0  0  0
  -10.5542    8.5098   -3.4629 H   0  0  0  0  0  0  0  0  0  0  0  0
   -9.9971    5.4520   -1.4557 H   0  0  0  0  0  0  0  0  0  0  0  0
  -11.3508    6.1672   -3.5290 H   0  0  0  0  0  0  0  0  0  0  0  0
  -12.1692    5.3689   -2.0864 H   0  0  0  0  0  0  0  0  0  0  0  0
  -13.4479    7.3983   -3.1772 H   0  0  0  0  0  0  0  0  0  0  0  0
  -11.0034    9.1332   -0.4739 H   0  0  0  0  0  0  0  0  0  0  0  0
  -13.1554    7.7340    1.2306 H   0  0  0  0  0  0  0  0  0  0  0  0
  -11.7367    8.6984    1.8376 H   0  0  0  0  0  0  0  0  0  0  0  0
  -13.8514    9.9786    1.9364 H   0  0  0  0  0  0  0  0  0  0  0  0
  -12.6318   10.7126    0.8228 H   0  0  0  0  0  0  0  0  0  0  0  0
  -14.7871   10.8073   -0.2264 H   0  0  0  0  0  0  0  0  0  0  0  0
  -15.5450    8.8900    1.0530 H   0  0  0  0  0  0  0  0  0  0  0  0
  -12.4869   11.3228   -1.0931 H   0  0  0  0  0  0  0  0  0  0  0  0
  -11.9810   10.4587   -2.5845 H   0  0  0  0  0  0  0  0  0  0  0  0
  -13.4804   11.4478   -2.5845 H   0  0  0  0  0  0  0  0  0  0  0  0
  -15.7565    9.2423   -2.0670 H   0  0  0  0  0  0  0  0  0  0  0  0
  -14.8473   10.2801   -3.2173 H   0  0  0  0  0  0  0  0  0  0  0  0
  -14.5922    8.5020   -3.2173 H   0  0  0  0  0  0  0  0  0  0  0  0
  -11.3670    6.0780    1.6725 H   0  0  0  0  0  0  0  0  0  0  0  0
  -12.5440    5.8872    0.3290 H   0  0  0  0  0  0  0  0  0  0  0  0
  -11.0193    4.9375    0.3290 H   0  0  0  0  0  0  0  0  0  0  0  0
   -9.7834    8.1519    1.4033 H   0  0  0  0  0  0  0  0  0  0  0  0
   -9.1034    6.4682    1.0317 H   0  0  0  0  0  0  0  0  0  0  0  0
   -8.5652    9.0501   -0.4621 H   0  0  0  0  0  0  0  0  0  0  0  0
   -7.4176    8.0507    0.5125 H   0  0  0  0  0  0  0  0  0  0  0  0
   -7.5150    5.7490    0.2098 H   0  0  0  0  0  0  0  0  0  0  0  0
   -8.2241    5.0130   -1.2675 H   0  0  0  0  0  0  0  0  0  0  0  0
   -6.5116    5.5552   -1.2675 H   0  0  0  0  0  0  0  0  0  0  0  0
  1  2  1  0
  2  3  1  0
  3  4  1  0
  4  5  1  0
  5  6  1  0
  6  7  1  0
  7  8  1  0
  7  9  1  0
  2 10  1  0
 10 11  1  0
 11 12  1  0
 12 13  1  0
 13 14  1  6
 13 15  1  0
 15 16  1  0
 16 17  1  0
 17 18  2  0
 18 19  1  0
 19 20  1  0
 20 21  1  0
 21 22  1  0
 22 23  1  0
 22 24  1  0
 24 25  1  0
 24 26  1  0
 19 27  1  0
 27 28  1  1
 27 29  1  0
 29 30  1  0
 30 31  1  0
 31 32  1  1
  7  5  1  0
 31 10  1  0
 31 13  1  0
 27 15  1  0
 24 18  1  0
  1 33  1  0
  1 34  1  0
  1 35  1  0
  2 36  1  6
  3 37  1  0
  3 38  1  0
  4 39  1  0
  4 40  1  0
  5 41  1  1
  8 42  1  0
  8 43  1  0
  8 44  1  0
  9 45  1  0
  9 46  1  0
  9 47  1  0
 10 48  1  6
 11 49  1  0
 11 50  1  0
 12 51  1  0
 12 52  1  0
 14 53  1  0
 14 54  1  0
 14 55  1  0
 15 56  1  1
 16 57  1  0
 16 58  1  0
 17 59  1  0
 19 60  1  6
 20 61  1  0
 20 62  1  0
 21 63  1  0
 21 64  1  0
 22 65  1  6
 23 66  1  0
 25 67  1  0
 25 68  1  0
 25 69  1  0
 26 70  1  0
 26 71  1  0
 26 72  1  0
 28 73  1  0
 28 74  1  0
 28 75  1  0
 29 76  1  0
 29 77  1  0
 30 78  1  0
 30 79  1  0
 32 80  1  0
 32 81  1  0
 32 82  1  0
M  END
>  <meeko>  (13) 
{"is_sidechain": [false], "intermolecular_energy": 2.731, "internal_energy": -0.839}

$$$$
EPH_relaxed_0001_pdb2pqr_Repair_325_r2_0001_out
     RDKit          3D

 82 86  0  0  0  0  0  0  0  0999 V2000
   -0.6870   10.6190   -1.7800 C   0  0  0  0  0  0  0  0  0  0  0  0
    0.3780   10.3610   -0.7090 C   0  0  2  0  0  0  0  0  0  0  0  0
   -0.2360   10.2200    0.6980 C   0  0  0  0  0  0  0  0  0  0  0  0
    0.5920   10.8850    1.8010 C   0  0  0  0  0  0  0  0  0  0  0  0
   -0.1870   11.9480    2.5140 C   0  0  2  0  0  0  0  0  0  0  0  0
    0.4580   13.2270    2.5720 O   0  0  0  0  0  0  0  0  0  0  0  0
    0.2500   12.5650    3.8300 C   0  0  0  0  0  0  0  0  0  0  0  0
    1.5130   12.1390    4.5100 C   0  0  0  0  0  0  0  0  0  0  0  0
   -0.7840   13.2200    4.6910 C   0  0  0  0  0  0  0  0  0  0  0  0
    1.4060   11.4860   -0.7180 C   0  0  1  0  0  0  0  0  0  0  0  0
    2.7190   11.0900   -1.4450 C   0  0  0  0  0  0  0  0  0  0  0  0
    3.2400   12.3660   -2.1540 C   0  0  0  0  0  0  0  0  0  0  0  0
    2.4050   13.5180   -1.5470 C   0  0  1  0  0  0  0  0  0  0  0  0
    3.0970   13.8400   -0.1850 C   0  0  0  0  0  0  0  0  0  0  0  0
    2.2480   14.7980   -2.4320 C   0  0  2  0  0  0  0  0  0  0  0  0
    3.5610   15.5330   -2.7550 C   0  0  0  0  0  0  0  0  0  0  0  0
    3.9530   16.5950   -1.7820 C   0  0  0  0  0  0  0  0  0  0  0  0
    3.1470   17.1420   -0.8530 C   0  0  0  0  0  0  0  0  0  0  0  0
    1.6620   16.7640   -0.7790 C   0  0  1  0  0  0  0  0  0  0  0  0
    0.8070   18.0510   -0.6400 C   0  0  0  0  0  0  0  0  0  0  0  0
    1.2470   18.9220    0.5330 C   0  0  0  0  0  0  0  0  0  0  0  0
    2.7130   19.3250    0.3930 C   0  0  2  0  0  0  0  0  0  0  0  0
    2.8470   20.1920   -0.7370 O   0  0  0  0  0  0  0  0  0  0  0  0
    3.6690   18.1100    0.2360 C   0  0  0  0  0  0  0  0  0  0  0  0
    3.7520   17.3360    1.5750 C   0  0  0  0  0  0  0  0  0  0  0  0
    5.0960   18.6580   -0.0370 C   0  0  0  0  0  0  0  0  0  0  0  0
    1.1330   15.8010   -1.9280 C   0  0  1  0  0  0  0  0  0  0  0  0
    0.6960   16.6410   -3.1670 C   0  0  0  0  0  0  0  0  0  0  0  0
   -0.1570   15.0560   -1.4200 C   0  0  0  0  0  0  0  0  0  0  0  0
    0.0590   13.7350   -0.6560 C   0  0  0  0  0  0  0  0  0  0  0  0
    1.0080   12.8080   -1.4210 C   0  0  2  0  0  0  0  0  0  0  0  0
    0.3300   12.4490   -2.7870 C   0  0  0  0  0  0  0  0  0  0  0  0
   -1.6464   10.8514   -1.2946 H   0  0  0  0  0  0  0  0  0  0  0  0
   -0.3781   11.4683   -2.4071 H   0  0  0  0  0  0  0  0  0  0  0  0
   -0.8011    9.7225   -2.4071 H   0  0  0  0  0  0  0  0  0  0  0  0
    0.8682    9.4068   -0.9523 H   0  0  0  0  0  0  0  0  0  0  0  0
   -1.2350   10.6803    0.6885 H   0  0  0  0  0  0  0  0  0  0  0  0
   -0.2711    9.1446    0.9268 H   0  0  0  0  0  0  0  0  0  0  0  0
    0.8977   10.1186    2.5284 H   0  0  0  0  0  0  0  0  0  0  0  0
    1.4689   11.3573    1.3341 H   0  0  0  0  0  0  0  0  0  0  0  0
   -1.1382   11.5024    2.1875 H   0  0  0  0  0  0  0  0  0  0  0  0
    1.3759   12.1852    5.6004 H   0  0  0  0  0  0  0  0  0  0  0  0
    1.7587   11.1083    4.2147 H   0  0  0  0  0  0  0  0  0  0  0  0
    2.3328   12.8103    4.2147 H   0  0  0  0  0  0  0  0  0  0  0  0
   -0.5333   13.0612    5.7502 H   0  0  0  0  0  0  0  0  0  0  0  0
   -0.8088   14.2989    4.4778 H   0  0  0  0  0  0  0  0  0  0  0  0
   -1.7700   12.7814    4.4778 H   0  0  0  0  0  0  0  0  0  0  0  0
    1.5071   11.6515    0.3648 H   0  0  0  0  0  0  0  0  0  0  0  0
    3.4616   10.7311   -0.7171 H   0  0  0  0  0  0  0  0  0  0  0  0
    2.5412   10.2808   -2.1686 H   0  0  0  0  0  0  0  0  0  0  0  0
    4.3109   12.5135   -1.9505 H   0  0  0  0  0  0  0  0  0  0  0  0
    3.1369   12.3072   -3.2476 H   0  0  0  0  0  0  0  0  0  0  0  0
    2.4393   13.5339    0.6419 H   0  0  0  0  0  0  0  0  0  0  0  0
    4.0486   13.2922   -0.1186 H   0  0  0  0  0  0  0  0  0  0  0  0
    3.2907   14.9208   -0.1186 H   0  0  0  0  0  0  0  0  0  0  0  0
    1.8955   14.3827   -3.3876 H   0  0  0  0  0  0  0  0  0  0  0  0
    4.3689   14.7872   -2.7879 H   0  0  0  0  0  0  0  0  0  0  0  0
    3.3951   16.0452   -3.7142 H   0  0  0  0  0  0  0  0  0  0  0  0
    4.9890   16.9619   -1.8281 H   0  0  0  0  0  0  0  0  0  0  0  0
    1.5508   16.1424    0.1217 H   0  0  0  0  0  0  0  0  0  0  0  0
    0.8973   18.6362   -1.5671 H   0  0  0  0  0  0  0  0  0  0  0  0
   -0.2327   17.7428   -0.4554 H   0  0  0  0  0  0  0  0  0  0  0  0
    0.6253   19.8290    0.5611 H   0  0  0  0  0  0  0  0  0  0  0  0
    1.1283   18.3457    1.4624 H   0  0  0  0  0  0  0  0  0  0  0  0
    3.0051   19.8362    1.3221 H   0  0  0  0  0  0  0  0  0  0  0  0
    3.6040   19.8790   -1.2590 H   0  0  0  0  0  0  0  0  0  0  0  0
    3.6761   18.0442    2.4132 H   0  0  0  0  0  0  0  0  0  0  0  0
    2.9264   16.6113    1.6314 H   0  0  0  0  0  0  0  0  0  0  0  0
    4.7125   16.8028    1.6314 H   0  0  0  0  0  0  0  0  0  0  0  0
    5.6032   18.8528    0.9195 H   0  0  0  0  0  0  0  0  0  0  0  0
    5.6698   17.9163   -0.6119 H   0  0  0  0  0  0  0  0  0  0  0  0
    5.0259   19.5932   -0.6119 H   0  0  0  0  0  0  0  0  0  0  0  0
    0.2129   17.5695   -2.8286 H   0  0  0  0  0  0  0  0  0  0  0  0
    1.5802   16.8875   -3.7732 H   0  0  0  0  0  0  0  0  0  0  0  0
   -0.0134   16.0585   -3.7732 H   0  0  0  0  0  0  0  0  0  0  0  0
   -0.6963   15.7429   -0.7512 H   0  0  0  0  0  0  0  0  0  0  0  0
   -0.7049   14.7751   -2.3315 H   0  0  0  0  0  0  0  0  0  0  0  0
    0.4907   13.9567    0.3311 H   0  0  0  0  0  0  0  0  0  0  0  0
   -0.9122   13.2301   -0.5470 H   0  0  0  0  0  0  0  0  0  0  0  0
   -0.6278   11.9418   -2.5988 H   0  0  0  0  0  0  0  0  0  0  0  0
    0.1506   13.3703   -3.3606 H   0  0  0  0  0  0  0  0  0  0  0  0
    0.9912   11.7828   -3.3606 H   0  0  0  0  0  0  0  0  0  0  0  0
  1  2  1  0
  2  3  1  0
  3  4  1  0
  4  5  1  0
  5  6  1  0
  6  7  1  0
  7  8  1  0
  7  9  1  0
  2 10  1  0
 10 11  1  0
 11 12  1  0
 12 13  1  0
 13 14  1  1
 13 15  1  0
 15 16  1  0
 16 17  1  0
 17 18  2  0
 18 19  1  0
 19 20  1  0
 20 21  1  0
 21 22  1  0
 22 23  1  0
 22 24  1  0
 24 25  1  0
 24 26  1  0
 19 27  1  0
 27 28  1  6
 27 29  1  0
 29 30  1  0
 30 31  1  0
 31 32  1  6
  7  5  1  0
 31 10  1  0
 31 13  1  0
 27 15  1  0
 24 18  1  0
  1 33  1  0
  1 34  1  0
  1 35  1  0
  2 36  1  6
  3 37  1  0
  3 38  1  0
  4 39  1  0
  4 40  1  0
  5 41  1  1
  8 42  1  0
  8 43  1  0
  8 44  1  0
  9 45  1  0
  9 46  1  0
  9 47  1  0
 10 48  1  1
 11 49  1  0
 11 50  1  0
 12 51  1  0
 12 52  1  0
 14 53  1  0
 14 54  1  0
 14 55  1  0
 15 56  1  6
 16 57  1  0
 16 58  1  0
 17 59  1  0
 19 60  1  1
 20 61  1  0
 20 62  1  0
 21 63  1  0
 21 64  1  0
 22 65  1  1
 23 66  1  0
 25 67  1  0
 25 68  1  0
 25 69  1  0
 26 70  1  0
 26 71  1  0
 26 72  1  0
 28 73  1  0
 28 74  1  0
 28 75  1  0
 29 76  1  0
 29 77  1  0
 30 78  1  0
 30 79  1  0
 32 80  1  0
 32 81  1  0
 32 82  1  0
M  END
>  <meeko>  (14) 
{"is_sidechain": [false], "intermolecular_energy": 2.731, "internal_energy": -0.839}

$$$$
EPH_relaxed_0001_pdb2pqr_Repair_325_r2_0001_out
     RDKit          3D

 82 86  0  0  0  0  0  0  0  0999 V2000
    0.2110   18.1120    0.1590 C   0  0  0  0  0  0  0  0  0  0  0  0
    1.2890   17.2040   -0.4390 C   0  0  2  0  0  0  0  0  0  0  0  0
    2.1700   17.9460   -1.4640 C   0  0  0  0  0  0  0  0  0  0  0  0
    3.5000   18.4420   -0.8880 C   0  0  0  0  0  0  0  0  0  0  0  0
    4.6130   17.4740   -1.1510 C   0  0  2  0  0  0  0  0  0  0  0  0
    5.8290   18.0720   -1.6190 O   0  0  0  0  0  0  0  0  0  0  0  0
    5.1630   17.1880   -2.5360 C   0  0  0  0  0  0  0  0  0  0  0  0
    4.6140   17.8700   -3.7490 C   0  0  0  0  0  0  0  0  0  0  0  0
    5.8900   15.9000   -2.7650 C   0  0  0  0  0  0  0  0  0  0  0  0
    0.6420   15.9880   -1.0920 C   0  0  1  0  0  0  0  0  0  0  0  0
    0.2600   16.2400   -2.5750 C   0  0  0  0  0  0  0  0  0  0  0  0
    0.4760   14.9010   -3.3260 C   0  0  0  0  0  0  0  0  0  0  0  0
    0.6520   13.8490   -2.2060 C   0  0  1  0  0  0  0  0  0  0  0  0
   -0.8000   13.5040   -1.7480 C   0  0  0  0  0  0  0  0  0  0  0  0
    1.4590   12.5650   -2.5840 C   0  0  2  0  0  0  0  0  0  0  0  0
    0.8310   11.7020   -3.6920 C   0  0  0  0  0  0  0  0  0  0  0  0
   -0.1010   10.6360   -3.2190 C   0  0  0  0  0  0  0  0  0  0  0  0
   -0.2060   10.1940   -1.9520 C   0  0  0  0  0  0  0  0  0  0  0  0
    0.7370   10.7100   -0.8580 C   0  0  1  0  0  0  0  0  0  0  0  0
    1.2740    9.5130   -0.0300 C   0  0  0  0  0  0  0  0  0  0  0  0
    0.1550    8.6390    0.5280 C   0  0  0  0  0  0  0  0  0  0  0  0
   -0.7260    8.0980   -0.5950 C   0  0  2  0  0  0  0  0  0  0  0  0
    0.0440    7.1890   -1.3880 O   0  0  0  0  0  0  0  0  0  0  0  0
   -1.3160    9.2130   -1.5020 C   0  0  0  0  0  0  0  0  0  0  0  0
   -2.3830   10.0140   -0.7150 C   0  0  0  0  0  0  0  0  0  0  0  0
   -2.0670    8.5270   -2.6750 C   0  0  0  0  0  0  0  0  0  0  0  0
    1.8950   11.6850   -1.3430 C   0  0  1  0  0  0  0  0  0  0  0  0
    3.1330   10.8540   -1.8000 C   0  0  0  0  0  0  0  0  0  0  0  0
    2.3730   12.5610   -0.1260 C   0  0  0  0  0  0  0  0  0  0  0  0
    1.6120   13.8780    0.1240 C   0  0  0  0  0  0  0  0  0  0  0  0
    1.4830   14.6900   -1.1680 C   0  0  2  0  0  0  0  0  0  0  0  0
    2.9270   15.0710   -1.6410 C   0  0  0  0  0  0  0  0  0  0  0  0
    0.2626   18.0685    1.2569 H   0  0  0  0  0  0  0  0  0  0  0  0
    0.3765   19.1469   -0.1751 H   0  0  0  0  0  0  0  0  0  0  0  0
   -0.7807   17.7730   -0.1751 H   0  0  0  0  0  0  0  0  0  0  0  0
    1.9421   16.8798    0.3846 H   0  0  0  0  0  0  0  0  0  0  0  0
    2.3862   17.2606   -2.2967 H   0  0  0  0  0  0  0  0  0  0  0  0
    1.6082   18.8348   -1.7871 H   0  0  0  0  0  0  0  0  0  0  0  0
    3.7508   19.4079   -1.3507 H   0  0  0  0  0  0  0  0  0  0  0  0
    3.3850   18.5448    0.2011 H   0  0  0  0  0  0  0  0  0  0  0  0
    4.2592   16.8125   -0.3465 H   0  0  0  0  0  0  0  0  0  0  0  0
    3.9521   18.6922   -3.4393 H   0  0  0  0  0  0  0  0  0  0  0  0
    5.4427   18.2728   -4.3498 H   0  0  0  0  0  0  0  0  0  0  0  0
    4.0435   17.1464   -4.3498 H   0  0  0  0  0  0  0  0  0  0  0  0
    6.1461   15.4463   -1.7962 H   0  0  0  0  0  0  0  0  0  0  0  0
    5.2470   15.2121   -3.3335 H   0  0  0  0  0  0  0  0  0  0  0  0
    6.8113   16.0950   -3.3335 H   0  0  0  0  0  0  0  0  0  0  0  0
   -0.2101   15.8441   -0.4114 H   0  0  0  0  0  0  0  0  0  0  0  0
   -0.7931   16.5495   -2.6476 H   0  0  0  0  0  0  0  0  0  0  0  0
    0.8752   17.0411   -3.0108 H   0  0  0  0  0  0  0  0  0  0  0  0
   -0.3971   14.6609   -3.9505 H   0  0  0  0  0  0  0  0  0  0  0  0
    1.3419   14.9378   -4.0033 H   0  0  0  0  0  0  0  0  0  0  0  0
   -0.8450   13.4933   -0.6490 H   0  0  0  0  0  0  0  0  0  0  0  0
   -1.4967   14.2616   -2.1362 H   0  0  0  0  0  0  0  0  0  0  0  0
   -1.0814   12.5140   -2.1362 H   0  0  0  0  0  0  0  0  0  0  0  0
    2.3791   12.9839   -3.0175 H   0  0  0  0  0  0  0  0  0  0  0  0
    0.2718   12.3679   -4.3657 H   0  0  0  0  0  0  0  0  0  0  0  0
    1.6665   11.1803   -4.1817 H   0  0  0  0  0  0  0  0  0  0  0  0
   -0.7578   10.1723   -3.9698 H   0  0  0  0  0  0  0  0  0  0  0  0
    0.1286   11.3646   -0.2166 H   0  0  0  0  0  0  0  0  0  0  0  0
    1.9143    8.8956   -0.6771 H   0  0  0  0  0  0  0  0  0  0  0  0
    1.8352    9.9220    0.8231 H   0  0  0  0  0  0  0  0  0  0  0  0
    0.5974    7.7947    1.0770 H   0  0  0  0  0  0  0  0  0  0  0  0
   -0.4668    9.2503    1.1986 H   0  0  0  0  0  0  0  0  0  0  0  0
   -1.5819    7.5896   -0.1270 H   0  0  0  0  0  0  0  0  0  0  0  0
   -0.1810    6.2870   -1.1050 H   0  0  0  0  0  0  0  0  0  0  0  0
   -2.2142    9.8873    0.3646 H   0  0  0  0  0  0  0  0  0  0  0  0
   -2.3071   11.0800   -0.9753 H   0  0  0  0  0  0  0  0  0  0  0  0
   -3.3855    9.6435   -0.9753 H   0  0  0  0  0  0  0  0  0  0  0  0
   -2.8229    7.8366   -2.2726 H   0  0  0  0  0  0  0  0  0  0  0  0
   -2.5608    9.2923   -3.2917 H   0  0  0  0  0  0  0  0  0  0  0  0
   -1.3494    7.9661   -3.2917 H   0  0  0  0  0  0  0  0  0  0  0  0
    3.6764   10.4892   -0.9159 H   0  0  0  0  0  0  0  0  0  0  0  0
    2.7973    9.9976   -2.4032 H   0  0  0  0  0  0  0  0  0  0  0  0
    3.7985   11.4890   -2.4032 H   0  0  0  0  0  0  0  0  0  0  0  0
    2.2823   11.9468    0.7820 H   0  0  0  0  0  0  0  0  0  0  0  0
    3.4001   12.8652   -0.3763 H   0  0  0  0  0  0  0  0  0  0  0  0
    0.6066   13.6459    0.5051 H   0  0  0  0  0  0  0  0  0  0  0  0
    2.1739   14.4739    0.8583 H   0  0  0  0  0  0  0  0  0  0  0  0
    3.5678   15.2401   -0.7630 H   0  0  0  0  0  0  0  0  0  0  0  0
    3.3427   14.2518   -2.2461 H   0  0  0  0  0  0  0  0  0  0  0  0
    2.8845   15.9887   -2.2461 H   0  0  0  0  0  0  0  0  0  0  0  0
  1  2  1  0
  2  3  1  0
  3  4  1  0
  4  5  1  0
  5  6  1  0
  6  7  1  0
  7  8  1  0
  7  9  1  0
  2 10  1  0
 10 11  1  0
 11 12  1  0
 12 13  1  0
 13 14  1  1
 13 15  1  0
 15 16  1  0
 16 17  1  0
 17 18  2  0
 18 19  1  0
 19 20  1  0
 20 21  1  0
 21 22  1  0
 22 23  1  0
 22 24  1  0
 24 25  1  0
 24 26  1  0
 19 27  1  0
 27 28  1  6
 27 29  1  0
 29 30  1  0
 30 31  1  0
 31 32  1  6
  7  5  1  0
 31 10  1  0
 31 13  1  0
 27 15  1  0
 24 18  1  0
  1 33  1  0
  1 34  1  0
  1 35  1  0
  2 36  1  1
  3 37  1  0
  3 38  1  0
  4 39  1  0
  4 40  1  0
  5 41  1  1
  8 42  1  0
  8 43  1  0
  8 44  1  0
  9 45  1  0
  9 46  1  0
  9 47  1  0
 10 48  1  1
 11 49  1  0
 11 50  1  0
 12 51  1  0
 12 52  1  0
 14 53  1  0
 14 54  1  0
 14 55  1  0
 15 56  1  6
 16 57  1  0
 16 58  1  0
 17 59  1  0
 19 60  1  1
 20 61  1  0
 20 62  1  0
 21 63  1  0
 21 64  1  0
 22 65  1  1
 23 66  1  0
 25 67  1  0
 25 68  1  0
 25 69  1  0
 26 70  1  0
 26 71  1  0
 26 72  1  0
 28 73  1  0
 28 74  1  0
 28 75  1  0
 29 76  1  0
 29 77  1  0
 30 78  1  0
 30 79  1  0
 32 80  1  0
 32 81  1  0
 32 82  1  0
M  END
>  <meeko>  (15) 
{"is_sidechain": [false], "intermolecular_energy": 2.731, "internal_energy": -0.839}

$$$$
EPH_relaxed_0001_pdb2pqr_Repair_325_r2_0001_out
     RDKit          3D

 82 86  0  0  0  0  0  0  0  0999 V2000
    0.9320    8.9230   -0.4120 C   0  0  0  0  0  0  0  0  0  0  0  0
   -0.1200    9.7420   -1.1660 C   0  0  2  0  0  0  0  0  0  0  0  0
   -0.8740    8.8970   -2.2120 C   0  0  0  0  0  0  0  0  0  0  0  0
   -2.2840    8.4910   -1.7730 C   0  0  0  0  0  0  0  0  0  0  0  0
   -2.8020    7.3340   -2.5730 C   0  0  2  0  0  0  0  0  0  0  0  0
   -3.8220    7.6710   -3.5230 O   0  0  0  0  0  0  0  0  0  0  0  0
   -4.2160    6.7990   -2.4520 C   0  0  0  0  0  0  0  0  0  0  0  0
   -5.2010    7.4070   -1.5030 C   0  0  0  0  0  0  0  0  0  0  0  0
   -4.4900    5.3930   -2.8880 C   0  0  0  0  0  0  0  0  0  0  0  0
    0.5400   10.9390   -1.8420 C   0  0  1  0  0  0  0  0  0  0  0  0
    0.1980   11.0350   -3.3520 C   0  0  0  0  0  0  0  0  0  0  0  0
    0.1080   12.5450   -3.6950 C   0  0  0  0  0  0  0  0  0  0  0  0
    0.7210   13.2600   -2.4690 C   0  0  1  0  0  0  0  0  0  0  0  0
    2.2650   13.1740   -2.6840 C   0  0  0  0  0  0  0  0  0  0  0  0
    0.2540   14.7320   -2.2220 C   0  0  2  0  0  0  0  0  0  0  0  0
    0.6080   15.7250   -3.3420 C   0  0  0  0  0  0  0  0  0  0  0  0
    1.9240   16.4150   -3.1900 C   0  0  0  0  0  0  0  0  0  0  0  0
    2.6560   16.4620   -2.0620 C   0  0  0  0  0  0  0  0  0  0  0  0
    2.1270   15.8600   -0.7530 C   0  0  1  0  0  0  0  0  0  0  0  0
    2.3530   16.8650    0.4070 C   0  0  0  0  0  0  0  0  0  0  0  0
    3.8070   17.3140    0.5170 C   0  0  0  0  0  0  0  0  0  0  0  0
    4.2790   17.9590   -0.7830 C   0  0  2  0  0  0  0  0  0  0  0  0
    3.5640   19.1840   -0.9760 O   0  0  0  0  0  0  0  0  0  0  0  0
    4.0910   17.0430   -2.0250 C   0  0  0  0  0  0  0  0  0  0  0  0
    5.0920   15.8630   -1.9570 C   0  0  0  0  0  0  0  0  0  0  0  0
    4.4730   17.8640   -3.2860 C   0  0  0  0  0  0  0  0  0  0  0  0
    0.6390   15.3040   -0.7980 C   0  0  1  0  0  0  0  0  0  0  0  0
   -0.3690   16.4550   -0.4940 C   0  0  0  0  0  0  0  0  0  0  0  0
    0.4540   14.2380    0.3450 C   0  0  0  0  0  0  0  0  0  0  0  0
    0.8200   12.7810    0.0030 C   0  0  0  0  0  0  0  0  0  0  0  0
    0.1690   12.3470   -1.3140 C   0  0  2  0  0  0  0  0  0  0  0  0
   -1.3840   12.4020   -1.1200 C   0  0  0  0  0  0  0  0  0  0  0  0
    0.7810    9.0406    0.6712 H   0  0  0  0  0  0  0  0  0  0  0  0
    0.8335    7.8614   -0.6829 H   0  0  0  0  0  0  0  0  0  0  0  0
    1.9370    9.2788   -0.6829 H   0  0  0  0  0  0  0  0  0  0  0  0
   -0.8583   10.0908   -0.4289 H   0  0  0  0  0  0  0  0  0  0  0  0
   -0.9540    9.4827   -3.1397 H   0  0  0  0  0  0  0  0  0  0  0  0
   -0.3001    7.9689   -2.3506 H   0  0  0  0  0  0  0  0  0  0  0  0
   -2.2587    8.2070   -0.7106 H   0  0  0  0  0  0  0  0  0  0  0  0
   -2.9540    9.3480   -1.9360 H   0  0  0  0  0  0  0  0  0  0  0  0
   -1.8202    6.8393   -2.5359 H   0  0  0  0  0  0  0  0  0  0  0  0
   -4.8828    7.2106   -0.4685 H   0  0  0  0  0  0  0  0  0  0  0  0
   -5.2503    8.4929   -1.6715 H   0  0  0  0  0  0  0  0  0  0  0  0
   -6.1938    6.9643   -1.6715 H   0  0  0  0  0  0  0  0  0  0  0  0
   -4.6149    4.7523   -2.0026 H   0  0  0  0  0  0  0  0  0  0  0  0
   -5.4098    5.3687   -3.4908 H   0  0  0  0  0  0  0  0  0  0  0  0
   -3.6467    5.0251   -3.4908 H   0  0  0  0  0  0  0  0  0  0  0  0
    1.5944   10.7193   -1.6185 H   0  0  0  0  0  0  0  0  0  0  0  0
    0.9876   10.5570   -3.9504 H   0  0  0  0  0  0  0  0  0  0  0  0
   -0.7488   10.5218   -3.5760 H   0  0  0  0  0  0  0  0  0  0  0  0
    0.6834   12.7717   -4.6047 H   0  0  0  0  0  0  0  0  0  0  0  0
   -0.9250   12.8672   -3.8928 H   0  0  0  0  0  0  0  0  0  0  0  0
    2.7702   13.1459   -1.7073 H   0  0  0  0  0  0  0  0  0  0  0  0
    2.5064   12.2610   -3.2481 H   0  0  0  0  0  0  0  0  0  0  0  0
    2.6063   14.0545   -3.2481 H   0  0  0  0  0  0  0  0  0  0  0  0
   -0.8418   14.6384   -2.2418 H   0  0  0  0  0  0  0  0  0  0  0  0
    0.6212   15.1735   -4.2937 H   0  0  0  0  0  0  0  0  0  0  0  0
   -0.1564   16.5149   -3.3014 H   0  0  0  0  0  0  0  0  0  0  0  0
    2.3289   16.9280   -4.0748 H   0  0  0  0  0  0  0  0  0  0  0  0
    2.7163   14.9481   -0.5767 H   0  0  0  0  0  0  0  0  0  0  0  0
    1.7227   17.7499    0.2347 H   0  0  0  0  0  0  0  0  0  0  0  0
    2.0886   16.3563    1.3458 H   0  0  0  0  0  0  0  0  0  0  0  0
    3.8973   18.0443    1.3346 H   0  0  0  0  0  0  0  0  0  0  0  0
    4.4324   16.4317    0.7182 H   0  0  0  0  0  0  0  0  0  0  0  0
    5.3598   18.1405   -0.6879 H   0  0  0  0  0  0  0  0  0  0  0  0
    3.1640   19.4280   -0.1240 H   0  0  0  0  0  0  0  0  0  0  0  0
    5.2995   15.6184   -0.9048 H   0  0  0  0  0  0  0  0  0  0  0  0
    4.6588   14.9853   -2.4589 H   0  0  0  0  0  0  0  0  0  0  0  0
    6.0286   16.1473   -2.4589 H   0  0  0  0  0  0  0  0  0  0  0  0
    4.9186   18.8217   -2.9789 H   0  0  0  0  0  0  0  0  0  0  0  0
    5.1999   17.2971   -3.8863 H   0  0  0  0  0  0  0  0  0  0  0  0
    3.5712   18.0549   -3.8863 H   0  0  0  0  0  0  0  0  0  0  0  0
   -0.4728   16.5735    0.5947 H   0  0  0  0  0  0  0  0  0  0  0  0
    0.0031   17.3933   -0.9311 H   0  0  0  0  0  0  0  0  0  0  0  0
   -1.3482   16.2099   -0.9311 H   0  0  0  0  0  0  0  0  0  0  0  0
    1.0813   14.5481    1.1937 H   0  0  0  0  0  0  0  0  0  0  0  0
   -0.6264   14.2222    0.5512 H   0  0  0  0  0  0  0  0  0  0  0  0
    1.9128   12.6970   -0.0909 H   0  0  0  0  0  0  0  0  0  0  0  0
    0.4515   12.1285    0.8082 H   0  0  0  0  0  0  0  0  0  0  0  0
   -1.6192   12.4103   -0.0455 H   0  0  0  0  0  0  0  0  0  0  0  0
   -1.7800   13.3147   -1.5891 H   0  0  0  0  0  0  0  0  0  0  0  0
   -1.8436   11.5196   -1.5891 H   0  0  0  0  0  0  0  0  0  0  0  0
  1  2  1  0
  2  3  1  0
  3  4  1  0
  4  5  1  0
  5  6  1  0
  6  7  1  0
  7  8  1  0
  7  9  1  0
  2 10  1  0
 10 11  1  0
 11 12  1  0
 12 13  1  0
 13 14  1  6
 13 15  1  0
 15 16  1  0
 16 17  1  0
 17 18  2  0
 18 19  1  0
 19 20  1  0
 20 21  1  0
 21 22  1  0
 22 23  1  0
 22 24  1  0
 24 25  1  0
 24 26  1  0
 19 27  1  0
 27 28  1  1
 27 29  1  0
 29 30  1  0
 30 31  1  0
 31 32  1  1
  7  5  1  0
 31 10  1  0
 31 13  1  0
 27 15  1  0
 24 18  1  0
  1 33  1  0
  1 34  1  0
  1 35  1  0
  2 36  1  1
  3 37  1  0
  3 38  1  0
  4 39  1  0
  4 40  1  0
  5 41  1  6
  8 42  1  0
  8 43  1  0
  8 44  1  0
  9 45  1  0
  9 46  1  0
  9 47  1  0
 10 48  1  6
 11 49  1  0
 11 50  1  0
 12 51  1  0
 12 52  1  0
 14 53  1  0
 14 54  1  0
 14 55  1  0
 15 56  1  1
 16 57  1  0
 16 58  1  0
 17 59  1  0
 19 60  1  1
 20 61  1  0
 20 62  1  0
 21 63  1  0
 21 64  1  0
 22 65  1  1
 23 66  1  0
 25 67  1  0
 25 68  1  0
 25 69  1  0
 26 70  1  0
 26 71  1  0
 26 72  1  0
 28 73  1  0
 28 74  1  0
 28 75  1  0
 29 76  1  0
 29 77  1  0
 30 78  1  0
 30 79  1  0
 32 80  1  0
 32 81  1  0
 32 82  1  0
M  END
>  <meeko>  (16) 
{"is_sidechain": [false], "intermolecular_energy": 2.731, "internal_energy": -0.839}

$$$$
EPH_relaxed_0001_pdb2pqr_Repair_325_r2_0001_out
     RDKit          3D

 82 86  0  0  0  0  0  0  0  0999 V2000
   -1.3590   10.4230    1.6610 C   0  0  0  0  0  0  0  0  0  0  0  0
   -1.9950   10.1220    0.3010 C   0  0  2  0  0  0  0  0  0  0  0  0
   -2.8020    8.8080    0.3150 C   0  0  0  0  0  0  0  0  0  0  0  0
   -4.1700    8.9180   -0.3640 C   0  0  0  0  0  0  0  0  0  0  0  0
   -4.6930    7.5760   -0.7770 C   0  0  2  0  0  0  0  0  0  0  0  0
   -4.8110    7.3900   -2.1930 O   0  0  0  0  0  0  0  0  0  0  0  0
   -6.0390    7.3740   -1.4480 C   0  0  0  0  0  0  0  0  0  0  0  0
   -6.9450    8.5280   -1.7430 C   0  0  0  0  0  0  0  0  0  0  0  0
   -6.6810    6.0230   -1.3720 C   0  0  0  0  0  0  0  0  0  0  0  0
   -0.9160   10.0590   -0.7750 C   0  0  1  0  0  0  0  0  0  0  0  0
   -1.3320    9.1860   -1.9880 C   0  0  0  0  0  0  0  0  0  0  0  0
   -0.7160    9.8470   -3.2480 C   0  0  0  0  0  0  0  0  0  0  0  0
    0.2980   10.8740   -2.6920 C   0  0  1  0  0  0  0  0  0  0  0  0
    1.5720   10.0380   -2.3530 C   0  0  0  0  0  0  0  0  0  0  0  0
    0.6340   12.0860   -3.6210 C   0  0  2  0  0  0  0  0  0  0  0  0
    1.3010   11.7170   -4.9580 C   0  0  0  0  0  0  0  0  0  0  0  0
    2.7930   11.6800   -4.9380 C   0  0  0  0  0  0  0  0  0  0  0  0
    3.5750   12.2050   -3.9770 C   0  0  0  0  0  0  0  0  0  0  0  0
    2.9680   13.0030   -2.8160 C   0  0  1  0  0  0  0  0  0  0  0  0
    3.7800   14.3090   -2.6050 C   0  0  0  0  0  0  0  0  0  0  0  0
    5.2710   14.0470   -2.4170 C   0  0  0  0  0  0  0  0  0  0  0  0
    5.8500   13.3030   -3.6170 C   0  0  2  0  0  0  0  0  0  0  0  0
    5.8030   14.1630   -4.7590 O   0  0  0  0  0  0  0  0  0  0  0  0
    5.1060   11.9750   -3.9320 C   0  0  0  0  0  0  0  0  0  0  0  0
    5.4090   10.9340   -2.8260 C   0  0  0  0  0  0  0  0  0  0  0  0
    5.6970   11.3960   -5.2460 C   0  0  0  0  0  0  0  0  0  0  0  0
    1.4030   13.2640   -2.8980 C   0  0  1  0  0  0  0  0  0  0  0  0
    1.1210   14.5550   -3.7260 C   0  0  0  0  0  0  0  0  0  0  0  0
    0.8510   13.5380   -1.4490 C   0  0  0  0  0  0  0  0  0  0  0  0
    0.4240   12.3080   -0.6240 C   0  0  0  0  0  0  0  0  0  0  0  0
   -0.4960   11.3940   -1.4390 C   0  0  2  0  0  0  0  0  0  0  0  0
   -1.7960   12.2020   -1.7760 C   0  0  0  0  0  0  0  0  0  0  0  0
   -2.0393   10.1010    2.4632 H   0  0  0  0  0  0  0  0  0  0  0  0
   -0.4062    9.8803    1.7484 H   0  0  0  0  0  0  0  0  0  0  0  0
   -1.1746   11.5039    1.7484 H   0  0  0  0  0  0  0  0  0  0  0  0
   -2.6973   10.9383    0.0764 H   0  0  0  0  0  0  0  0  0  0  0  0
   -2.2170    8.0357   -0.2059 H   0  0  0  0  0  0  0  0  0  0  0  0
   -2.9862    8.5554    1.3696 H   0  0  0  0  0  0  0  0  0  0  0  0
   -4.8810    9.3768    0.3388 H   0  0  0  0  0  0  0  0  0  0  0  0
   -4.0557    9.5346   -1.2678 H   0  0  0  0  0  0  0  0  0  0  0  0
   -4.2242    7.0978    0.0957 H   0  0  0  0  0  0  0  0  0  0  0  0
   -7.2932    8.9715   -0.7985 H   0  0  0  0  0  0  0  0  0  0  0  0
   -6.3974    9.2850   -2.3237 H   0  0  0  0  0  0  0  0  0  0  0  0
   -7.8103    8.1757   -2.3237 H   0  0  0  0  0  0  0  0  0  0  0  0
   -6.8156    5.7398   -0.3176 H   0  0  0  0  0  0  0  0  0  0  0  0
   -7.6607    6.0540   -1.8713 H   0  0  0  0  0  0  0  0  0  0  0  0
   -6.0383    5.2830   -1.8713 H   0  0  0  0  0  0  0  0  0  0  0  0
   -0.0838    9.6570   -0.1784 H   0  0  0  0  0  0  0  0  0  0  0  0
   -0.9446    8.1634   -1.8691 H   0  0  0  0  0  0  0  0  0  0  0  0
   -2.4270    9.1221   -2.0712 H   0  0  0  0  0  0  0  0  0  0  0  0
   -0.2071    9.0967   -3.8709 H   0  0  0  0  0  0  0  0  0  0  0  0
   -1.4776   10.3165   -3.8880 H   0  0  0  0  0  0  0  0  0  0  0  0
    1.6829    9.9652   -1.2610 H   0  0  0  0  0  0  0  0  0  0  0  0
    1.4726    9.0289   -2.7795 H   0  0  0  0  0  0  0  0  0  0  0  0
    2.4581   10.5308   -2.7795 H   0  0  0  0  0  0  0  0  0  0  0  0
   -0.3643   12.4687   -3.8796 H   0  0  0  0  0  0  0  0  0  0  0  0
    0.9404   10.7209   -5.2541 H   0  0  0  0  0  0  0  0  0  0  0  0
    1.0261   12.5136   -5.6650 H   0  0  0  0  0  0  0  0  0  0  0  0
    3.2957   11.1815   -5.7799 H   0  0  0  0  0  0  0  0  0  0  0  0
    3.0556   12.3613   -1.9269 H   0  0  0  0  0  0  0  0  0  0  0  0
    3.6437   14.9550   -3.4849 H   0  0  0  0  0  0  0  0  0  0  0  0
    3.4073   14.7894   -1.6883 H   0  0  0  0  0  0  0  0  0  0  0  0
    5.7937   15.0081   -2.3030 H   0  0  0  0  0  0  0  0  0  0  0  0
    5.4077   13.4257   -1.5196 H   0  0  0  0  0  0  0  0  0  0  0  0
    6.8860   13.0303   -3.3673 H   0  0  0  0  0  0  0  0  0  0  0  0
    4.9730   13.9800   -5.2320 H   0  0  0  0  0  0  0  0  0  0  0  0
    5.2738   11.3986   -1.8382 H   0  0  0  0  0  0  0  0  0  0  0  0
    4.7219   10.0810   -2.9272 H   0  0  0  0  0  0  0  0  0  0  0  0
    6.4466   10.5830   -2.9272 H   0  0  0  0  0  0  0  0  0  0  0  0
    6.4635   10.6451   -5.0037 H   0  0  0  0  0  0  0  0  0  0  0  0
    4.8946   10.9248   -5.8326 H   0  0  0  0  0  0  0  0  0  0  0  0
    6.1516   12.2079   -5.8326 H   0  0  0  0  0  0  0  0  0  0  0  0
    0.9372   15.3965   -3.0419 H   0  0  0  0  0  0  0  0  0  0  0  0
    1.9909   14.7812   -4.3601 H   0  0  0  0  0  0  0  0  0  0  0  0
    0.2360   14.3979   -4.3601 H   0  0  0  0  0  0  0  0  0  0  0  0
    1.6390   14.0593   -0.8857 H   0  0  0  0  0  0  0  0  0  0  0  0
   -0.0710   14.1194   -1.5973 H   0  0  0  0  0  0  0  0  0  0  0  0
    1.3209   11.7442   -0.3279 H   0  0  0  0  0  0  0  0  0  0  0  0
   -0.1236   12.6546    0.2648 H   0  0  0  0  0  0  0  0  0  0  0  0
   -2.2895   12.5087   -0.8420 H   0  0  0  0  0  0  0  0  0  0  0  0
   -1.5313   13.0950   -2.3613 H   0  0  0  0  0  0  0  0  0  0  0  0
   -2.4796   11.5694   -2.3613 H   0  0  0  0  0  0  0  0  0  0  0  0
  1  2  1  0
  2  3  1  0
  3  4  1  0
  4  5  1  0
  5  6  1  0
  6  7  1  0
  7  8  1  0
  7  9  1  0
  2 10  1  0
 10 11  1  0
 11 12  1  0
 12 13  1  0
 13 14  1  1
 13 15  1  0
 15 16  1  0
 16 17  1  0
 17 18  2  0
 18 19  1  0
 19 20  1  0
 20 21  1  0
 21 22  1  0
 22 23  1  0
 22 24  1  0
 24 25  1  0
 24 26  1  0
 19 27  1  0
 27 28  1  6
 27 29  1  0
 29 30  1  0
 30 31  1  0
 31 32  1  6
  7  5  1  0
 31 10  1  0
 31 13  1  0
 27 15  1  0
 24 18  1  0
  1 33  1  0
  1 34  1  0
  1 35  1  0
  2 36  1  6
  3 37  1  0
  3 38  1  0
  4 39  1  0
  4 40  1  0
  5 41  1  1
  8 42  1  0
  8 43  1  0
  8 44  1  0
  9 45  1  0
  9 46  1  0
  9 47  1  0
 10 48  1  1
 11 49  1  0
 11 50  1  0
 12 51  1  0
 12 52  1  0
 14 53  1  0
 14 54  1  0
 14 55  1  0
 15 56  1  6
 16 57  1  0
 16 58  1  0
 17 59  1  0
 19 60  1  1
 20 61  1  0
 20 62  1  0
 21 63  1  0
 21 64  1  0
 22 65  1  1
 23 66  1  0
 25 67  1  0
 25 68  1  0
 25 69  1  0
 26 70  1  0
 26 71  1  0
 26 72  1  0
 28 73  1  0
 28 74  1  0
 28 75  1  0
 29 76  1  0
 29 77  1  0
 30 78  1  0
 30 79  1  0
 32 80  1  0
 32 81  1  0
 32 82  1  0
M  END
>  <meeko>  (17) 
{"is_sidechain": [false], "intermolecular_energy": 2.731, "internal_energy": -0.839}

$$$$
EPH_relaxed_0001_pdb2pqr_Repair_325_r2_0001_out
     RDKit          3D

 82 86  0  0  0  0  0  0  0  0999 V2000
    0.3100    9.0730   -1.1620 C   0  0  0  0  0  0  0  0  0  0  0  0
    0.3510    9.9100    0.1190 C   0  0  2  0  0  0  0  0  0  0  0  0
   -1.0400   10.4560    0.5010 C   0  0  0  0  0  0  0  0  0  0  0  0
   -2.0610   10.3870   -0.6380 C   0  0  0  0  0  0  0  0  0  0  0  0
   -3.2930    9.6360   -0.2340 C   0  0  2  0  0  0  0  0  0  0  0  0
   -3.0490    8.3250    0.2930 O   0  0  0  0  0  0  0  0  0  0  0  0
   -3.7810    8.3860   -0.9420 C   0  0  0  0  0  0  0  0  0  0  0  0
   -3.0450    7.8160   -2.1140 C   0  0  0  0  0  0  0  0  0  0  0  0
   -5.2220    8.0040   -0.8080 C   0  0  0  0  0  0  0  0  0  0  0  0
    1.3350   11.0620   -0.0430 C   0  0  1  0  0  0  0  0  0  0  0  0
    2.6850   10.6110   -0.6630 C   0  0  0  0  0  0  0  0  0  0  0  0
    3.1800   11.7790   -1.5550 C   0  0  0  0  0  0  0  0  0  0  0  0
    2.2830   12.9770   -1.1620 C   0  0  1  0  0  0  0  0  0  0  0  0
    2.9170   13.5410    0.1480 C   0  0  0  0  0  0  0  0  0  0  0  0
    2.1050   14.0910   -2.2440 C   0  0  2  0  0  0  0  0  0  0  0  0
    3.3990   14.8200   -2.6480 C   0  0  0  0  0  0  0  0  0  0  0  0
    3.7190   16.0400   -1.8480 C   0  0  0  0  0  0  0  0  0  0  0  0
    2.8630   16.6930   -1.0400 C   0  0  0  0  0  0  0  0  0  0  0  0
    1.3920   16.2690   -0.9450 C   0  0  1  0  0  0  0  0  0  0  0  0
    0.4840   17.5240   -1.0360 C   0  0  0  0  0  0  0  0  0  0  0  0
    0.8530   18.5880   -0.0070 C   0  0  0  0  0  0  0  0  0  0  0  0
    2.3060   19.0260   -0.1720 C   0  0  2  0  0  0  0  0  0  0  0  0
    2.4440   19.7070   -1.4230 O   0  0  0  0  0  0  0  0  0  0  0  0
    3.3130   17.8440   -0.1070 C   0  0  0  0  0  0  0  0  0  0  0  0
    3.3820   17.2970    1.3400 C   0  0  0  0  0  0  0  0  0  0  0  0
    4.7260   18.4020   -0.4280 C   0  0  0  0  0  0  0  0  0  0  0  0
    0.9370   15.1130   -1.9370 C   0  0  1  0  0  0  0  0  0  0  0  0
    0.5090   15.7250   -3.3060 C   0  0  0  0  0  0  0  0  0  0  0  0
   -0.3390   14.4040   -1.3490 C   0  0  0  0  0  0  0  0  0  0  0  0
   -0.0980   13.2320   -0.3780 C   0  0  0  0  0  0  0  0  0  0  0  0
    0.9100   12.2370   -0.9600 C   0  0  2  0  0  0  0  0  0  0  0  0
    0.2900   11.6360   -2.2670 C   0  0  0  0  0  0  0  0  0  0  0  0
    0.2577    8.0057   -0.9011 H   0  0  0  0  0  0  0  0  0  0  0  0
   -0.5757    9.3499   -1.7527 H   0  0  0  0  0  0  0  0  0  0  0  0
    1.2185    9.2620   -1.7527 H   0  0  0  0  0  0  0  0  0  0  0  0
    0.6825    9.2499    0.9341 H   0  0  0  0  0  0  0  0  0  0  0  0
   -1.4237    9.8679    1.3477 H   0  0  0  0  0  0  0  0  0  0  0  0
   -0.9106   11.5188    0.7535 H   0  0  0  0  0  0  0  0  0  0  0  0
   -2.3453   11.4104   -0.9242 H   0  0  0  0  0  0  0  0  0  0  0  0
   -1.5972    9.8556   -1.4821 H   0  0  0  0  0  0  0  0  0  0  0  0
   -3.8002   10.5714    0.0448 H   0  0  0  0  0  0  0  0  0  0  0  0
   -2.2226    7.1791   -1.7561 H   0  0  0  0  0  0  0  0  0  0  0  0
   -3.7357    7.2149   -2.7236 H   0  0  0  0  0  0  0  0  0  0  0  0
   -2.6358    8.6351   -2.7236 H   0  0  0  0  0  0  0  0  0  0  0  0
   -5.4853    7.9342    0.2578 H   0  0  0  0  0  0  0  0  0  0  0  0
   -5.8500    8.7667   -1.2916 H   0  0  0  0  0  0  0  0  0  0  0  0
   -5.3897    7.0304   -1.2916 H   0  0  0  0  0  0  0  0  0  0  0  0
    1.3946   11.4025    1.0013 H   0  0  0  0  0  0  0  0  0  0  0  0
    3.4169   10.4050    0.1319 H   0  0  0  0  0  0  0  0  0  0  0  0
    2.5613    9.6898   -1.2512 H   0  0  0  0  0  0  0  0  0  0  0  0
    4.2376   12.0023   -1.3510 H   0  0  0  0  0  0  0  0  0  0  0  0
    3.1139   11.5422   -2.6272 H   0  0  0  0  0  0  0  0  0  0  0  0
    2.4156   13.0950    1.0196 H   0  0  0  0  0  0  0  0  0  0  0  0
    3.9881   13.2917    0.1738 H   0  0  0  0  0  0  0  0  0  0  0  0
    2.7942   14.6338    0.1738 H   0  0  0  0  0  0  0  0  0  0  0  0
    1.7982   13.5138   -3.1287 H   0  0  0  0  0  0  0  0  0  0  0  0
    4.2352   14.1135   -2.5401 H   0  0  0  0  0  0  0  0  0  0  0  0
    3.2448   15.1647   -3.6811 H   0  0  0  0  0  0  0  0  0  0  0  0
    4.7412   16.4389   -1.9257 H   0  0  0  0  0  0  0  0  0  0  0  0
    1.2759   15.7949    0.0408 H   0  0  0  0  0  0  0  0  0  0  0  0
    0.5814   17.9576   -2.0422 H   0  0  0  0  0  0  0  0  0  0  0  0
   -0.5486   17.2049   -0.8312 H   0  0  0  0  0  0  0  0  0  0  0  0
    0.1966   19.4606   -0.1403 H   0  0  0  0  0  0  0  0  0  0  0  0
    0.7269   18.1619    0.9992 H   0  0  0  0  0  0  0  0  0  0  0  0
    2.5473   19.6908    0.6705 H   0  0  0  0  0  0  0  0  0  0  0  0
    1.6830   20.3050   -1.5170 H   0  0  0  0  0  0  0  0  0  0  0  0
    3.2771   18.1290    2.0519 H   0  0  0  0  0  0  0  0  0  0  0  0
    2.5679   16.5743    1.4980 H   0  0  0  0  0  0  0  0  0  0  0  0
    4.3501   16.7991    1.4980 H   0  0  0  0  0  0  0  0  0  0  0  0
    5.2591   18.6125    0.5109 H   0  0  0  0  0  0  0  0  0  0  0  0
    5.2899   17.6590   -1.0111 H   0  0  0  0  0  0  0  0  0  0  0  0
    4.6301   19.3298   -1.0111 H   0  0  0  0  0  0  0  0  0  0  0  0
   -0.1134   16.6150   -3.1312 H   0  0  0  0  0  0  0  0  0  0  0  0
    1.4053   16.0106   -3.8762 H   0  0  0  0  0  0  0  0  0  0  0  0
   -0.0668   14.9811   -3.8762 H   0  0  0  0  0  0  0  0  0  0  0  0
   -0.9251   15.1650   -0.8129 H   0  0  0  0  0  0  0  0  0  0  0  0
   -0.8462   13.9583   -2.2174 H   0  0  0  0  0  0  0  0  0  0  0  0
    0.2926   13.6260    0.5718 H   0  0  0  0  0  0  0  0  0  0  0  0
   -1.0522   12.7098   -0.2146 H   0  0  0  0  0  0  0  0  0  0  0  0
   -0.4764   10.8931   -2.0013 H   0  0  0  0  0  0  0  0  0  0  0  0
   -0.1696   12.4413   -2.8588 H   0  0  0  0  0  0  0  0  0  0  0  0
    1.0807   11.1516   -2.8588 H   0  0  0  0  0  0  0  0  0  0  0  0
  1  2  1  0
  2  3  1  0
  3  4  1  0
  4  5  1  0
  5  6  1  0
  6  7  1  0
  7  8  1  0
  7  9  1  0
  2 10  1  0
 10 11  1  0
 11 12  1  0
 12 13  1  0
 13 14  1  1
 13 15  1  0
 15 16  1  0
 16 17  1  0
 17 18  2  0
 18 19  1  0
 19 20  1  0
 20 21  1  0
 21 22  1  0
 22 23  1  0
 22 24  1  0
 24 25  1  0
 24 26  1  0
 19 27  1  0
 27 28  1  6
 27 29  1  0
 29 30  1  0
 30 31  1  0
 31 32  1  6
  7  5  1  0
 31 10  1  0
 31 13  1  0
 27 15  1  0
 24 18  1  0
  1 33  1  0
  1 34  1  0
  1 35  1  0
  2 36  1  1
  3 37  1  0
  3 38  1  0
  4 39  1  0
  4 40  1  0
  5 41  1  1
  8 42  1  0
  8 43  1  0
  8 44  1  0
  9 45  1  0
  9 46  1  0
  9 47  1  0
 10 48  1  1
 11 49  1  0
 11 50  1  0
 12 51  1  0
 12 52  1  0
 14 53  1  0
 14 54  1  0
 14 55  1  0
 15 56  1  6
 16 57  1  0
 16 58  1  0
 17 59  1  0
 19 60  1  1
 20 61  1  0
 20 62  1  0
 21 63  1  0
 21 64  1  0
 22 65  1  1
 23 66  1  0
 25 67  1  0
 25 68  1  0
 25 69  1  0
 26 70  1  0
 26 71  1  0
 26 72  1  0
 28 73  1  0
 28 74  1  0
 28 75  1  0
 29 76  1  0
 29 77  1  0
 30 78  1  0
 30 79  1  0
 32 80  1  0
 32 81  1  0
 32 82  1  0
M  END
>  <meeko>  (18) 
{"is_sidechain": [false], "intermolecular_energy": 2.731, "internal_energy": -0.839}

$$$$
EPH_relaxed_0001_pdb2pqr_Repair_325_r2_0001_out
     RDKit          3D

 82 86  0  0  0  0  0  0  0  0999 V2000
    4.4590   17.9010   -1.8300 C   0  0  0  0  0  0  0  0  0  0  0  0
    3.2400   17.1580   -2.3830 C   0  0  2  0  0  0  0  0  0  0  0  0
    1.9450   17.9840   -2.2480 C   0  0  0  0  0  0  0  0  0  0  0  0
    2.1690   19.3920   -1.6880 C   0  0  0  0  0  0  0  0  0  0  0  0
    2.2010   19.3940   -0.1900 C   0  0  2  0  0  0  0  0  0  0  0  0
    1.4010   18.3780    0.4280 O   0  0  0  0  0  0  0  0  0  0  0  0
    1.0000   19.7360    0.6720 C   0  0  0  0  0  0  0  0  0  0  0  0
   -0.3190   20.0990    0.0630 C   0  0  0  0  0  0  0  0  0  0  0  0
    1.2340   20.1900    2.0780 C   0  0  0  0  0  0  0  0  0  0  0  0
    3.0810   15.8190   -1.6720 C   0  0  1  0  0  0  0  0  0  0  0  0
    3.4810   15.8870   -0.1740 C   0  0  0  0  0  0  0  0  0  0  0  0
    2.5310   14.9270    0.5870 C   0  0  0  0  0  0  0  0  0  0  0  0
    1.8450   14.0960   -0.5230 C   0  0  1  0  0  0  0  0  0  0  0  0
    2.8790   12.9860   -0.8890 C   0  0  0  0  0  0  0  0  0  0  0  0
    0.4480   13.4900   -0.1690 C   0  0  2  0  0  0  0  0  0  0  0  0
    0.4510   12.4770    0.9890 C   0  0  0  0  0  0  0  0  0  0  0  0
    0.6550   11.0530    0.5900 C   0  0  0  0  0  0  0  0  0  0  0  0
    0.5450   10.5680   -0.6610 C   0  0  0  0  0  0  0  0  0  0  0  0
    0.0880   11.4660   -1.8170 C   0  0  1  0  0  0  0  0  0  0  0  0
   -0.9900   10.7270   -2.6520 C   0  0  0  0  0  0  0  0  0  0  0  0
   -0.5220    9.3560   -3.1290 C   0  0  0  0  0  0  0  0  0  0  0  0
   -0.1310    8.4710   -1.9480 C   0  0  2  0  0  0  0  0  0  0  0  0
   -1.3050    8.1780   -1.1840 O   0  0  0  0  0  0  0  0  0  0  0  0
    0.9430    9.1170   -1.0280 C   0  0  0  0  0  0  0  0  0  0  0  0
    2.3040    9.1580   -1.7660 C   0  0  0  0  0  0  0  0  0  0  0  0
    1.1430    8.1860    0.1990 C   0  0  0  0  0  0  0  0  0  0  0  0
   -0.3540   12.9400   -1.4170 C   0  0  1  0  0  0  0  0  0  0  0  0
   -1.8620   12.9530   -1.0180 C   0  0  0  0  0  0  0  0  0  0  0  0
   -0.2200   13.8760   -2.6750 C   0  0  0  0  0  0  0  0  0  0  0  0
    1.1510   14.5400   -2.9040 C   0  0  0  0  0  0  0  0  0  0  0  0
    1.6590   15.2050   -1.6210 C   0  0  2  0  0  0  0  0  0  0  0  0
    0.6510   16.3420   -1.2400 C   0  0  0  0  0  0  0  0  0  0  0  0
    4.4311   17.8840   -0.7305 H   0  0  0  0  0  0  0  0  0  0  0  0
    5.3783   17.4095   -2.1811 H   0  0  0  0  0  0  0  0  0  0  0  0
    4.4434   18.9433   -2.1811 H   0  0  0  0  0  0  0  0  0  0  0  0
    3.4135   16.9907   -3.4563 H   0  0  0  0  0  0  0  0  0  0  0  0
    1.4857   18.0750   -3.2434 H   0  0  0  0  0  0  0  0  0  0  0  0
    1.2977   17.4532   -1.5344 H   0  0  0  0  0  0  0  0  0  0  0  0
    3.1276   19.7775   -2.0656 H   0  0  0  0  0  0  0  0  0  0  0  0
    1.3326   20.0277   -2.0140 H   0  0  0  0  0  0  0  0  0  0  0  0
    3.2381   19.7607   -0.1896 H   0  0  0  0  0  0  0  0  0  0  0  0
   -1.0486   20.2998    0.8613 H   0  0  0  0  0  0  0  0  0  0  0  0
   -0.2003   20.9979   -0.5598 H   0  0  0  0  0  0  0  0  0  0  0  0
   -0.6770   19.2660   -0.5598 H   0  0  0  0  0  0  0  0  0  0  0  0
    0.8448   19.4348    2.7767 H   0  0  0  0  0  0  0  0  0  0  0  0
    2.3130   20.3230    2.2456 H   0  0  0  0  0  0  0  0  0  0  0  0
    0.7163   21.1460    2.2456 H   0  0  0  0  0  0  0  0  0  0  0  0
    3.7369   15.1980   -2.2998 H   0  0  0  0  0  0  0  0  0  0  0  0
    4.5255   15.5665   -0.0460 H   0  0  0  0  0  0  0  0  0  0  0  0
    3.3960   16.9139    0.2111 H   0  0  0  0  0  0  0  0  0  0  0  0
    3.1002   14.2742    1.2652 H   0  0  0  0  0  0  0  0  0  0  0  0
    1.8052   15.4674    1.2125 H   0  0  0  0  0  0  0  0  0  0  0  0
    3.2877   12.5472    0.0332 H   0  0  0  0  0  0  0  0  0  0  0  0
    2.3819   12.2020   -1.4791 H   0  0  0  0  0  0  0  0  0  0  0  0
    3.6962   13.4264   -1.4791 H   0  0  0  0  0  0  0  0  0  0  0  0
   -0.1028   14.3665    0.2031 H   0  0  0  0  0  0  0  0  0  0  0  0
    1.2590   12.7550    1.6817 H   0  0  0  0  0  0  0  0  0  0  0  0
   -0.5515   12.5263    1.4390 H   0  0  0  0  0  0  0  0  0  0  0  0
    0.9173   10.3398    1.3853 H   0  0  0  0  0  0  0  0  0  0  0  0
    0.9806   11.6445   -2.4346 H   0  0  0  0  0  0  0  0  0  0  0  0
   -1.8887   10.5965   -2.0313 H   0  0  0  0  0  0  0  0  0  0  0  0
   -1.1986   11.3373   -3.5431 H   0  0  0  0  0  0  0  0  0  0  0  0
   -1.3367    8.8718   -3.6874 H   0  0  0  0  0  0  0  0  0  0  0  0
    0.3593    9.4907   -3.7734 H   0  0  0  0  0  0  0  0  0  0  0  0
    0.3168    7.5532   -2.3568 H   0  0  0  0  0  0  0  0  0  0  0  0
   -1.8930    7.6420   -1.7430 H   0  0  0  0  0  0  0  0  0  0  0  0
    3.1202    9.1826   -1.0289 H   0  0  0  0  0  0  0  0  0  0  0  0
    2.4063    8.2625   -2.3966 H   0  0  0  0  0  0  0  0  0  0  0  0
    2.3522   10.0580   -2.3966 H   0  0  0  0  0  0  0  0  0  0  0  0
    1.0181    8.7672    1.1245 H   0  0  0  0  0  0  0  0  0  0  0  0
    0.3981    7.3771    0.1707 H   0  0  0  0  0  0  0  0  0  0  0  0
    2.1544    7.7543    0.1707 H   0  0  0  0  0  0  0  0  0  0  0  0
   -1.9512   12.9538    0.0784 H   0  0  0  0  0  0  0  0  0  0  0  0
   -2.3413   13.8553   -1.4255 H   0  0  0  0  0  0  0  0  0  0  0  0
   -2.3568   12.0591   -1.4255 H   0  0  0  0  0  0  0  0  0  0  0  0
   -0.4500   13.2720   -3.5651 H   0  0  0  0  0  0  0  0  0  0  0  0
   -0.9154   14.7080   -2.4900 H   0  0  0  0  0  0  0  0  0  0  0  0
    1.8732   13.7739   -3.2225 H   0  0  0  0  0  0  0  0  0  0  0  0
    1.0417   15.3121   -3.6798 H   0  0  0  0  0  0  0  0  0  0  0  0
    0.5824   16.4194   -0.1449 H   0  0  0  0  0  0  0  0  0  0  0  0
    1.0035   17.2983   -1.6538 H   0  0  0  0  0  0  0  0  0  0  0  0
   -0.3407   16.1067   -1.6538 H   0  0  0  0  0  0  0  0  0  0  0  0
  1  2  1  0
  2  3  1  0
  3  4  1  0
  4  5  1  0
  5  6  1  0
  6  7  1  0
  7  8  1  0
  7  9  1  0
  2 10  1  0
 10 11  1  0
 11 12  1  0
 12 13  1  0
 13 14  1  6
 13 15  1  0
 15 16  1  0
 16 17  1  0
 17 18  2  0
 18 19  1  0
 19 20  1  0
 20 21  1  0
 21 22  1  0
 22 23  1  0
 22 24  1  0
 24 25  1  0
 24 26  1  0
 19 27  1  0
 27 28  1  1
 27 29  1  0
 29 30  1  0
 30 31  1  0
 31 32  1  1
  7  5  1  0
 31 10  1  0
 31 13  1  0
 27 15  1  0
 24 18  1  0
  1 33  1  0
  1 34  1  0
  1 35  1  0
  2 36  1  6
  3 37  1  0
  3 38  1  0
  4 39  1  0
  4 40  1  0
  5 41  1  6
  8 42  1  0
  8 43  1  0
  8 44  1  0
  9 45  1  0
  9 46  1  0
  9 47  1  0
 10 48  1  6
 11 49  1  0
 11 50  1  0
 12 51  1  0
 12 52  1  0
 14 53  1  0
 14 54  1  0
 14 55  1  0
 15 56  1  1
 16 57  1  0
 16 58  1  0
 17 59  1  0
 19 60  1  6
 20 61  1  0
 20 62  1  0
 21 63  1  0
 21 64  1  0
 22 65  1  6
 23 66  1  0
 25 67  1  0
 25 68  1  0
 25 69  1  0
 26 70  1  0
 26 71  1  0
 26 72  1  0
 28 73  1  0
 28 74  1  0
 28 75  1  0
 29 76  1  0
 29 77  1  0
 30 78  1  0
 30 79  1  0
 32 80  1  0
 32 81  1  0
 32 82  1  0
M  END
>  <meeko>  (19) 
{"is_sidechain": [false], "intermolecular_energy": 2.731, "internal_energy": -0.839}

$$$$
EPH_relaxed_0001_pdb2pqr_Repair_325_r2_0001_out
     RDKit          3D

 82 86  0  0  0  0  0  0  0  0999 V2000
    1.9130   11.2490   -5.1890 C   0  0  0  0  0  0  0  0  0  0  0  0
    1.3080   11.0810   -3.7930 C   0  0  2  0  0  0  0  0  0  0  0  0
    0.1670   10.0450   -3.7740 C   0  0  0  0  0  0  0  0  0  0  0  0
    0.3640    8.9310   -2.7420 C   0  0  0  0  0  0  0  0  0  0  0  0
    0.3600    9.4660   -1.3420 C   0  0  2  0  0  0  0  0  0  0  0  0
    0.1720    8.4750   -0.3230 O   0  0  0  0  0  0  0  0  0  0  0  0
   -0.8650    9.4610   -0.4470 C   0  0  0  0  0  0  0  0  0  0  0  0
   -2.1740    8.9100   -0.9200 C   0  0  0  0  0  0  0  0  0  0  0  0
   -0.9210   10.4260    0.6960 C   0  0  0  0  0  0  0  0  0  0  0  0
    0.8000   12.4250   -3.2820 C   0  0  1  0  0  0  0  0  0  0  0  0
   -0.6500   12.3460   -2.7340 C   0  0  0  0  0  0  0  0  0  0  0  0
   -0.7320   13.3350   -1.5430 C   0  0  0  0  0  0  0  0  0  0  0  0
    0.5550   14.1850   -1.6520 C   0  0  1  0  0  0  0  0  0  0  0  0
    0.2330   15.2640   -2.7330 C   0  0  0  0  0  0  0  0  0  0  0  0
    1.0700   14.8330   -0.3260 C   0  0  2  0  0  0  0  0  0  0  0  0
    0.1100   15.8460    0.3210 C   0  0  0  0  0  0  0  0  0  0  0  0
    0.2920   17.2630   -0.1120 C   0  0  0  0  0  0  0  0  0  0  0  0
    1.3650   17.7510   -0.7630 C   0  0  0  0  0  0  0  0  0  0  0  0
    2.5860   16.8650   -1.0420 C   0  0  1  0  0  0  0  0  0  0  0  0
    3.8800   17.6360   -0.6700 C   0  0  0  0  0  0  0  0  0  0  0  0
    3.9720   18.9920   -1.3630 C   0  0  0  0  0  0  0  0  0  0  0  0
    2.7700   19.8650   -1.0140 C   0  0  2  0  0  0  0  0  0  0  0  0
    2.8270   20.1950    0.3770 O   0  0  0  0  0  0  0  0  0  0  0  0
    1.4080   19.1890   -1.3360 C   0  0  0  0  0  0  0  0  0  0  0  0
    1.2170   19.1060   -2.8710 C   0  0  0  0  0  0  0  0  0  0  0  0
    0.2790   20.1140   -0.8070 C   0  0  0  0  0  0  0  0  0  0  0  0
    2.5430   15.4060   -0.4130 C   0  0  1  0  0  0  0  0  0  0  0  0
    3.0950   15.4380    1.0450 C   0  0  0  0  0  0  0  0  0  0  0  0
    3.5040   14.4650   -1.2320 C   0  0  0  0  0  0  0  0  0  0  0  0
    2.9030   13.7600   -2.4630 C   0  0  0  0  0  0  0  0  0  0  0  0
    1.5750   13.0810   -2.1120 C   0  0  2  0  0  0  0  0  0  0  0  0
    1.8720   11.9750   -1.0430 C   0  0  0  0  0  0  0  0  0  0  0  0
    2.9693   11.5423   -5.0980 H   0  0  0  0  0  0  0  0  0  0  0  0
    1.8426   10.2973   -5.7361 H   0  0  0  0  0  0  0  0  0  0  0  0
    1.3619   12.0281   -5.7361 H   0  0  0  0  0  0  0  0  0  0  0  0
    2.1031   10.7071   -3.1311 H   0  0  0  0  0  0  0  0  0  0  0  0
   -0.7732   10.5681   -3.5451 H   0  0  0  0  0  0  0  0  0  0  0  0
    0.1508    9.5665   -4.7643 H   0  0  0  0  0  0  0  0  0  0  0  0
   -0.4511    8.1998   -2.8466 H   0  0  0  0  0  0  0  0  0  0  0  0
    1.3411    8.4609   -2.9269 H   0  0  0  0  0  0  0  0  0  0  0  0
    1.0678   10.2611   -1.6192 H   0  0  0  0  0  0  0  0  0  0  0  0
   -2.7967    8.6479   -0.0519 H   0  0  0  0  0  0  0  0  0  0  0  0
   -2.6921    9.6664   -1.5278 H   0  0  0  0  0  0  0  0  0  0  0  0
   -1.9952    8.0108   -1.5278 H   0  0  0  0  0  0  0  0  0  0  0  0
   -0.8888    9.8718    1.6457 H   0  0  0  0  0  0  0  0  0  0  0  0
   -0.0610   11.1097    0.6411 H   0  0  0  0  0  0  0  0  0  0  0  0
   -1.8543   11.0056    0.6411 H   0  0  0  0  0  0  0  0  0  0  0  0
    0.9191   13.0261   -4.1955 H   0  0  0  0  0  0  0  0  0  0  0  0
   -1.3670   12.6350   -3.5165 H   0  0  0  0  0  0  0  0  0  0  0  0
   -0.8968   11.3225   -2.4154 H   0  0  0  0  0  0  0  0  0  0  0  0
   -1.6256   13.9709   -1.6272 H   0  0  0  0  0  0  0  0  0  0  0  0
   -0.8091   12.8172   -0.5756 H   0  0  0  0  0  0  0  0  0  0  0  0
   -0.0480   16.2057   -2.2388 H   0  0  0  0  0  0  0  0  0  0  0  0
    1.1207   15.4302   -3.3610 H   0  0  0  0  0  0  0  0  0  0  0  0
   -0.6006   14.9165   -3.3610 H   0  0  0  0  0  0  0  0  0  0  0  0
    1.1026   13.9730    0.3590 H   0  0  0  0  0  0  0  0  0  0  0  0
   -0.9188   15.5447    0.0745 H   0  0  0  0  0  0  0  0  0  0  0  0
    0.3283   15.8267    1.3989 H   0  0  0  0  0  0  0  0  0  0  0  0
   -0.5194   17.9684    0.1205 H   0  0  0  0  0  0  0  0  0  0  0  0
    2.5713   16.6582   -2.1223 H   0  0  0  0  0  0  0  0  0  0  0  0
    3.8957   17.7943    0.4184 H   0  0  0  0  0  0  0  0  0  0  0  0
    4.7366   17.0316   -1.0032 H   0  0  0  0  0  0  0  0  0  0  0  0
    4.8923   19.5002   -1.0391 H   0  0  0  0  0  0  0  0  0  0  0  0
    3.9847   18.8303   -2.4510 H   0  0  0  0  0  0  0  0  0  0  0  0
    2.8268   20.7688   -1.6384 H   0  0  0  0  0  0  0  0  0  0  0  0
    3.6850   19.8900    0.7170 H   0  0  0  0  0  0  0  0  0  0  0  0
    0.2293   18.6768   -3.0949 H   0  0  0  0  0  0  0  0  0  0  0  0
    1.2851   20.1149   -3.3041 H   0  0  0  0  0  0  0  0  0  0  0  0
    2.0010   18.4674   -3.3041 H   0  0  0  0  0  0  0  0  0  0  0  0
    0.2857   20.1085    0.2930 H   0  0  0  0  0  0  0  0  0  0  0  0
    0.4449   21.1392   -1.1696 H   0  0  0  0  0  0  0  0  0  0  0  0
   -0.6935   19.7497   -1.1696 H   0  0  0  0  0  0  0  0  0  0  0  0
    2.2567   15.3894    1.7556 H   0  0  0  0  0  0  0  0  0  0  0  0
    3.7608   14.5769    1.2040 H   0  0  0  0  0  0  0  0  0  0  0  0
    3.6569   16.3702    1.2040 H   0  0  0  0  0  0  0  0  0  0  0  0
    4.3512   15.0750   -1.5785 H   0  0  0  0  0  0  0  0  0  0  0  0
    3.7726   13.6543   -0.5387 H   0  0  0  0  0  0  0  0  0  0  0  0
    2.7287   14.5039   -3.2543 H   0  0  0  0  0  0  0  0  0  0  0  0
    3.6102   12.9908   -2.8068 H   0  0  0  0  0  0  0  0  0  0  0  0
    1.7580   12.3996   -0.0347 H   0  0  0  0  0  0  0  0  0  0  0  0
    1.1659   11.1415   -1.1719 H   0  0  0  0  0  0  0  0  0  0  0  0
    2.9007   11.6073   -1.1719 H   0  0  0  0  0  0  0  0  0  0  0  0
  1  2  1  0
  2  3  1  0
  3  4  1  0
  4  5  1  0
  5  6  1  0
  6  7  1  0
  7  8  1  0
  7  9  1  0
  2 10  1  0
 10 11  1  0
 11 12  1  0
 12 13  1  0
 13 14  1  6
 13 15  1  0
 15 16  1  0
 16 17  1  0
 17 18  2  0
 18 19  1  0
 19 20  1  0
 20 21  1  0
 21 22  1  0
 22 23  1  0
 22 24  1  0
 24 25  1  0
 24 26  1  0
 19 27  1  0
 27 28  1  1
 27 29  1  0
 29 30  1  0
 30 31  1  0
 31 32  1  1
  7  5  1  0
 31 10  1  0
 31 13  1  0
 27 15  1  0
 24 18  1  0
  1 33  1  0
  1 34  1  0
  1 35  1  0
  2 36  1  1
  3 37  1  0
  3 38  1  0
  4 39  1  0
  4 40  1  0
  5 41  1  1
  8 42  1  0
  8 43  1  0
  8 44  1  0
  9 45  1  0
  9 46  1  0
  9 47  1  0
 10 48  1  6
 11 49  1  0
 11 50  1  0
 12 51  1  0
 12 52  1  0
 14 53  1  0
 14 54  1  0
 14 55  1  0
 15 56  1  1
 16 57  1  0
 16 58  1  0
 17 59  1  0
 19 60  1  6
 20 61  1  0
 20 62  1  0
 21 63  1  0
 21 64  1  0
 22 65  1  6
 23 66  1  0
 25 67  1  0
 25 68  1  0
 25 69  1  0
 26 70  1  0
 26 71  1  0
 26 72  1  0
 28 73  1  0
 28 74  1  0
 28 75  1  0
 29 76  1  0
 29 77  1  0
 30 78  1  0
 30 79  1  0
 32 80  1  0
 32 81  1  0
 32 82  1  0
M  END
>  <meeko>  (20) 
{"is_sidechain": [false], "intermolecular_energy": 2.731, "internal_energy": -0.839}

$$$$
