EPH_relaxed_0001_pdb2pqr_Repair_162_r2_0001_out
     RDKit          3D

 82 86  0  0  0  0  0  0  0  0999 V2000
   -1.6330    8.6230   -1.9220 C   0  0  0  0  0  0  0  0  0  0  0  0
   -2.0280    9.1360   -0.5340 C   0  0  2  0  0  0  0  0  0  0  0  0
   -3.5270    9.4890   -0.4500 C   0  0  0  0  0  0  0  0  0  0  0  0
   -4.4400    8.2680   -0.3120 C   0  0  0  0  0  0  0  0  0  0  0  0
   -5.1360    7.9480   -1.6000 C   0  0  2  0  0  0  0  0  0  0  0  0
   -6.3470    8.6810   -1.8250 O   0  0  0  0  0  0  0  0  0  0  0  0
   -6.4860    7.2590   -1.6740 C   0  0  0  0  0  0  0  0  0  0  0  0
   -7.2200    6.8480   -0.4360 C   0  0  0  0  0  0  0  0  0  0  0  0
   -6.8600    6.5520   -2.9390 C   0  0  0  0  0  0  0  0  0  0  0  0
   -1.1850   10.3520   -0.1690 C   0  0  1  0  0  0  0  0  0  0  0  0
   -0.1480   10.0480    0.9450 C   0  0  0  0  0  0  0  0  0  0  0  0
    1.1100   10.8960    0.6280 C   0  0  0  0  0  0  0  0  0  0  0  0
    0.6430   11.8990   -0.4520 C   0  0  1  0  0  0  0  0  0  0  0  0
   -0.0780   13.0350    0.3400 C   0  0  0  0  0  0  0  0  0  0  0  0
    1.7540   12.4680   -1.3940 C   0  0  2  0  0  0  0  0  0  0  0  0
    2.8470   13.2910   -0.6900 C   0  0  0  0  0  0  0  0  0  0  0  0
    2.5770   14.7560   -0.5890 C   0  0  0  0  0  0  0  0  0  0  0  0
    1.6440   15.4290   -1.2880 C   0  0  0  0  0  0  0  0  0  0  0  0
    0.8070   14.7270   -2.3650 C   0  0  1  0  0  0  0  0  0  0  0  0
    0.7660   15.6040   -3.6430 C   0  0  0  0  0  0  0  0  0  0  0  0
    0.2840   17.0240   -3.3640 C   0  0  0  0  0  0  0  0  0  0  0  0
    1.1750   17.7090   -2.3310 C   0  0  2  0  0  0  0  0  0  0  0  0
    2.4740   17.9030   -2.9000 O   0  0  0  0  0  0  0  0  0  0  0  0
    1.3000   16.9120   -1.0030 C   0  0  0  0  0  0  0  0  0  0  0  0
   -0.0460   16.9610   -0.2390 C   0  0  0  0  0  0  0  0  0  0  0  0
    2.3360   17.6400   -0.1050 C   0  0  0  0  0  0  0  0  0  0  0  0
    1.1990   13.2170   -2.6720 C   0  0  1  0  0  0  0  0  0  0  0  0
    2.3310   13.1690   -3.7430 C   0  0  0  0  0  0  0  0  0  0  0  0
   -0.0420   12.4830   -3.3050 C   0  0  0  0  0  0  0  0  0  0  0  0
   -1.0410   11.8380   -2.3250 C   0  0  0  0  0  0  0  0  0  0  0  0
   -0.3140   10.9750   -1.2890 C   0  0  2  0  0  0  0  0  0  0  0  0
    0.4020    9.8110   -2.0550 C   0  0  0  0  0  0  0  0  0  0  0  0
   -0.9650    7.7555   -1.8159 H   0  0  0  0  0  0  0  0  0  0  0  0
   -2.5368    8.3246   -2.4735 H   0  0  0  0  0  0  0  0  0  0  0  0
   -1.1135    9.4205   -2.4735 H   0  0  0  0  0  0  0  0  0  0  0  0
   -1.8393    8.3245    0.1842 H   0  0  0  0  0  0  0  0  0  0  0  0
   -3.6822   10.1392    0.4236 H   0  0  0  0  0  0  0  0  0  0  0  0
   -3.7939    9.9848   -1.3950 H   0  0  0  0  0  0  0  0  0  0  0  0
   -3.8334    7.4016   -0.0098 H   0  0  0  0  0  0  0  0  0  0  0  0
   -5.2057    8.4961    0.4441 H   0  0  0  0  0  0  0  0  0  0  0  0
   -4.1751    7.7431   -2.0946 H   0  0  0  0  0  0  0  0  0  0  0  0
   -6.6514    7.1664    0.4502 H   0  0  0  0  0  0  0  0  0  0  0  0
   -8.2128    7.3214   -0.4242 H   0  0  0  0  0  0  0  0  0  0  0  0
   -7.3352    5.7541   -0.4242 H   0  0  0  0  0  0  0  0  0  0  0  0
   -7.3615    5.6040   -2.6947 H   0  0  0  0  0  0  0  0  0  0  0  0
   -7.5406    7.1862   -3.5260 H   0  0  0  0  0  0  0  0  0  0  0  0
   -5.9528    6.3462   -3.5260 H   0  0  0  0  0  0  0  0  0  0  0  0
   -1.9843   11.0505    0.1196 H   0  0  0  0  0  0  0  0  0  0  0  0
   -0.5552   10.3271    1.9280 H   0  0  0  0  0  0  0  0  0  0  0  0
    0.0958    8.9758    0.9758 H   0  0  0  0  0  0  0  0  0  0  0  0
    1.4569   11.4269    1.5268 H   0  0  0  0  0  0  0  0  0  0  0  0
    1.9538   10.2785    0.2865 H   0  0  0  0  0  0  0  0  0  0  0  0
    0.0346   12.8576    1.4197 H   0  0  0  0  0  0  0  0  0  0  0  0
    0.3700   14.0052    0.0791 H   0  0  0  0  0  0  0  0  0  0  0  0
   -1.1466   13.0426    0.0791 H   0  0  0  0  0  0  0  0  0  0  0  0
    2.2515   11.5543   -1.7513 H   0  0  0  0  0  0  0  0  0  0  0  0
    2.9658   12.8962    0.3298 H   0  0  0  0  0  0  0  0  0  0  0  0
    3.7503   13.1902   -1.3096 H   0  0  0  0  0  0  0  0  0  0  0  0
    3.1924   15.3341    0.1161 H   0  0  0  0  0  0  0  0  0  0  0  0
   -0.2062   14.6297   -1.9479 H   0  0  0  0  0  0  0  0  0  0  0  0
    1.7788   15.6530   -4.0694 H   0  0  0  0  0  0  0  0  0  0  0  0
    0.0537   15.1414   -4.3421 H   0  0  0  0  0  0  0  0  0  0  0  0
    0.3069   17.6024   -4.2994 H   0  0  0  0  0  0  0  0  0  0  0  0
   -0.7407   16.9755   -2.9671 H   0  0  0  0  0  0  0  0  0  0  0  0
    0.7047   18.6700   -2.0756 H   0  0  0  0  0  0  0  0  0  0  0  0
    3.1300   17.6320   -2.2360 H   0  0  0  0  0  0  0  0  0  0  0  0
    0.1466   16.9540    0.8440 H   0  0  0  0  0  0  0  0  0  0  0  0
   -0.5877   17.8795   -0.5091 H   0  0  0  0  0  0  0  0  0  0  0  0
   -0.6531   16.0844   -0.5091 H   0  0  0  0  0  0  0  0  0  0  0  0
    2.0898   17.4670    0.9531 H   0  0  0  0  0  0  0  0  0  0  0  0
    3.3425   17.2496   -0.3159 H   0  0  0  0  0  0  0  0  0  0  0  0
    2.3098   18.7193   -0.3159 H   0  0  0  0  0  0  0  0  0  0  0  0
    3.3090   13.1275   -3.2412 H   0  0  0  0  0  0  0  0  0  0  0  0
    2.2033   12.2755   -4.3717 H   0  0  0  0  0  0  0  0  0  0  0  0
    2.2794   14.0701   -4.3717 H   0  0  0  0  0  0  0  0  0  0  0  0
   -0.5942   13.2206   -3.9059 H   0  0  0  0  0  0  0  0  0  0  0  0
    0.3806   11.6451   -3.8788 H   0  0  0  0  0  0  0  0  0  0  0  0
   -1.5981   12.6313   -1.8051 H   0  0  0  0  0  0  0  0  0  0  0  0
   -1.7276   11.1960   -2.8963 H   0  0  0  0  0  0  0  0  0  0  0  0
    0.8353    9.1067   -1.3296 H   0  0  0  0  0  0  0  0  0  0  0  0
   -0.3283    9.2840   -2.6866 H   0  0  0  0  0  0  0  0  0  0  0  0
    1.2017   10.2251   -2.6866 H   0  0  0  0  0  0  0  0  0  0  0  0
  1  2  1  0
  2  3  1  0
  3  4  1  0
  4  5  1  0
  5  6  1  0
  6  7  1  0
  7  8  1  0
  7  9  1  0
  2 10  1  0
 10 11  1  0
 11 12  1  0
 12 13  1  0
 13 14  1  1
 13 15  1  0
 15 16  1  0
 16 17  1  0
 17 18  2  0
 18 19  1  0
 19 20  1  0
 20 21  1  0
 21 22  1  0
 22 23  1  0
 22 24  1  0
 24 25  1  0
 24 26  1  0
 19 27  1  0
 27 28  1  6
 27 29  1  0
 29 30  1  0
 30 31  1  0
 31 32  1  6
  7  5  1  0
 31 10  1  0
 31 13  1  0
 27 15  1  0
 24 18  1  0
  1 33  1  0
  1 34  1  0
  1 35  1  0
  2 36  1  1
  3 37  1  0
  3 38  1  0
  4 39  1  0
  4 40  1  0
  5 41  1  6
  8 42  1  0
  8 43  1  0
  8 44  1  0
  9 45  1  0
  9 46  1  0
  9 47  1  0
 10 48  1  1
 11 49  1  0
 11 50  1  0
 12 51  1  0
 12 52  1  0
 14 53  1  0
 14 54  1  0
 14 55  1  0
 15 56  1  6
 16 57  1  0
 16 58  1  0
 17 59  1  0
 19 60  1  1
 20 61  1  0
 20 62  1  0
 21 63  1  0
 21 64  1  0
 22 65  1  1
 23 66  1  0
 25 67  1  0
 25 68  1  0
 25 69  1  0
 26 70  1  0
 26 71  1  0
 26 72  1  0
 28 73  1  0
 28 74  1  0
 28 75  1  0
 29 76  1  0
 29 77  1  0
 30 78  1  0
 30 79  1  0
 32 80  1  0
 32 81  1  0
 32 82  1  0
M  END
>  <meeko>  (1) 
{"is_sidechain": [false], "intermolecular_energy": 2.731, "internal_energy": -0.839}

$$$$
EPH_relaxed_0001_pdb2pqr_Repair_162_r2_0001_out
     RDKit          3D

 82 86  0  0  0  0  0  0  0  0999 V2000
    2.1020   19.5690   -0.5950 C   0  0  0  0  0  0  0  0  0  0  0  0
    2.4930   18.3510    0.2480 C   0  0  2  0  0  0  0  0  0  0  0  0
    3.9300   17.8760   -0.0490 C   0  0  0  0  0  0  0  0  0  0  0  0
    4.9160   18.1490    1.0900 C   0  0  0  0  0  0  0  0  0  0  0  0
    4.2800   18.9340    2.1970 C   0  0  2  0  0  0  0  0  0  0  0  0
    5.0250   20.0840    2.6200 O   0  0  0  0  0  0  0  0  0  0  0  0
    4.8680   19.0380    3.5920 C   0  0  0  0  0  0  0  0  0  0  0  0
    6.1450   18.3480    3.9550 C   0  0  0  0  0  0  0  0  0  0  0  0
    3.9590   19.4010    4.7250 C   0  0  0  0  0  0  0  0  0  0  0  0
    1.5080   17.2130    0.0050 C   0  0  1  0  0  0  0  0  0  0  0  0
    0.1970   17.6930   -0.6720 C   0  0  0  0  0  0  0  0  0  0  0  0
   -0.2620   16.5530   -1.6170 C   0  0  0  0  0  0  0  0  0  0  0  0
    0.6030   15.3370   -1.2100 C   0  0  1  0  0  0  0  0  0  0  0  0
   -0.1030   14.7460    0.0510 C   0  0  0  0  0  0  0  0  0  0  0  0
    0.8260   14.2490   -2.3100 C   0  0  2  0  0  0  0  0  0  0  0  0
   -0.4510   13.5430   -2.7980 C   0  0  0  0  0  0  0  0  0  0  0  0
   -0.8230   12.3070   -2.0480 C   0  0  0  0  0  0  0  0  0  0  0  0
   -0.0150   11.6250   -1.2140 C   0  0  0  0  0  0  0  0  0  0  0  0
    1.4530   12.0320   -1.0320 C   0  0  1  0  0  0  0  0  0  0  0  0
    2.3530   10.7710   -1.1090 C   0  0  0  0  0  0  0  0  0  0  0  0
    1.9230    9.6840   -0.1280 C   0  0  0  0  0  0  0  0  0  0  0  0
    0.4760    9.2650   -0.3780 C   0  0  2  0  0  0  0  0  0  0  0  0
    0.3980    8.6170   -1.6520 O   0  0  0  0  0  0  0  0  0  0  0  0
   -0.5230   10.4560   -0.3350 C   0  0  0  0  0  0  0  0  0  0  0  0
   -0.6610   10.9660    1.1210 C   0  0  0  0  0  0  0  0  0  0  0  0
   -1.9220    9.9200   -0.7420 C   0  0  0  0  0  0  0  0  0  0  0  0
    1.9680   13.2070   -1.9690 C   0  0  1  0  0  0  0  0  0  0  0  0
    2.4610   12.6260   -3.3300 C   0  0  0  0  0  0  0  0  0  0  0  0
    3.2190   13.8890   -1.2990 C   0  0  0  0  0  0  0  0  0  0  0  0
    2.9380   15.0380   -0.3120 C   0  0  0  0  0  0  0  0  0  0  0  0
    1.9700   16.0580   -0.9180 C   0  0  2  0  0  0  0  0  0  0  0  0
    2.6620   16.6850   -2.1760 C   0  0  0  0  0  0  0  0  0  0  0  0
    1.8340   20.4039    0.0692 H   0  0  0  0  0  0  0  0  0  0  0  0
    2.9508   19.8634   -1.2297 H   0  0  0  0  0  0  0  0  0  0  0  0
    1.2405   19.3143   -1.2297 H   0  0  0  0  0  0  0  0  0  0  0  0
    2.4574   18.6548    1.3046 H   0  0  0  0  0  0  0  0  0  0  0  0
    3.9060   16.7922   -0.2353 H   0  0  0  0  0  0  0  0  0  0  0  0
    4.2824   18.4442   -0.9225 H   0  0  0  0  0  0  0  0  0  0  0  0
    5.2709   17.1887    1.4922 H   0  0  0  0  0  0  0  0  0  0  0  0
    5.7513   18.7400    0.6864 H   0  0  0  0  0  0  0  0  0  0  0  0
    3.2739   18.6720    1.8376 H   0  0  0  0  0  0  0  0  0  0  0  0
    6.2366   18.2985    5.0501 H   0  0  0  0  0  0  0  0  0  0  0  0
    6.1417   17.3289    3.5409 H   0  0  0  0  0  0  0  0  0  0  0  0
    6.9956   18.9093    3.5409 H   0  0  0  0  0  0  0  0  0  0  0  0
    4.4652   19.1988    5.6804 H   0  0  0  0  0  0  0  0  0  0  0  0
    3.7051   20.4695    4.6635 H   0  0  0  0  0  0  0  0  0  0  0  0
    3.0389   18.8013    4.6635 H   0  0  0  0  0  0  0  0  0  0  0  0
    1.3906   16.8468    1.0356 H   0  0  0  0  0  0  0  0  0  0  0  0
   -0.5731   17.8873    0.0890 H   0  0  0  0  0  0  0  0  0  0  0  0
    0.3597   18.6269   -1.2299 H   0  0  0  0  0  0  0  0  0  0  0  0
   -1.3305   16.3353   -1.4725 H   0  0  0  0  0  0  0  0  0  0  0  0
   -0.1393   16.8158   -2.6781 H   0  0  0  0  0  0  0  0  0  0  0  0
    0.3735   15.1449    0.9587 H   0  0  0  0  0  0  0  0  0  0  0  0
   -1.1664   15.0271    0.0414 H   0  0  0  0  0  0  0  0  0  0  0  0
   -0.0134   13.6497    0.0414 H   0  0  0  0  0  0  0  0  0  0  0  0
    1.1820   14.8456   -3.1629 H   0  0  0  0  0  0  0  0  0  0  0  0
   -1.2856   14.2548   -2.7153 H   0  0  0  0  0  0  0  0  0  0  0  0
   -0.2458   13.2224   -3.8300 H   0  0  0  0  0  0  0  0  0  0  0  0
   -1.8433   11.9207   -2.1885 H   0  0  0  0  0  0  0  0  0  0  0  0
    1.5224   12.4797   -0.0296 H   0  0  0  0  0  0  0  0  0  0  0  0
    2.3034   10.3643   -2.1298 H   0  0  0  0  0  0  0  0  0  0  0  0
    3.3763   11.0746   -0.8432 H   0  0  0  0  0  0  0  0  0  0  0  0
    2.5777    8.8086   -0.2509 H   0  0  0  0  0  0  0  0  0  0  0  0
    2.0016   10.0824    0.8943 H   0  0  0  0  0  0  0  0  0  0  0  0
    0.1847    8.5823    0.4338 H   0  0  0  0  0  0  0  0  0  0  0  0
    1.1380    8.9410   -2.1930 H   0  0  0  0  0  0  0  0  0  0  0  0
   -0.4390   10.1457    1.8194 H   0  0  0  0  0  0  0  0  0  0  0  0
    0.0460   11.7918    1.2888 H   0  0  0  0  0  0  0  0  0  0  0  0
   -1.6880   11.3227    1.2888 H   0  0  0  0  0  0  0  0  0  0  0  0
   -2.5063    9.6961    0.1627 H   0  0  0  0  0  0  0  0  0  0  0  0
   -2.4468   10.6807   -1.3385 H   0  0  0  0  0  0  0  0  0  0  0  0
   -1.8041    9.0033   -1.3385 H   0  0  0  0  0  0  0  0  0  0  0  0
    3.1624   11.7994   -3.1433 H   0  0  0  0  0  0  0  0  0  0  0  0
    1.5993   12.2533   -3.9033 H   0  0  0  0  0  0  0  0  0  0  0  0
    2.9690   13.4155   -3.9033 H   0  0  0  0  0  0  0  0  0  0  0  0
    3.7709   13.1093   -0.7536 H   0  0  0  0  0  0  0  0  0  0  0  0
    3.7737   14.3514   -2.1288 H   0  0  0  0  0  0  0  0  0  0  0  0
    2.4956   14.6236    0.6059 H   0  0  0  0  0  0  0  0  0  0  0  0
    3.8871   15.5465   -0.0870 H   0  0  0  0  0  0  0  0  0  0  0  0
    3.4411   17.3909   -1.8523 H   0  0  0  0  0  0  0  0  0  0  0  0
    3.1185   15.8866   -2.7795 H   0  0  0  0  0  0  0  0  0  0  0  0
    1.9123   17.2177   -2.7795 H   0  0  0  0  0  0  0  0  0  0  0  0
  1  2  1  0
  2  3  1  0
  3  4  1  0
  4  5  1  0
  5  6  1  0
  6  7  1  0
  7  8  1  0
  7  9  1  0
  2 10  1  0
 10 11  1  0
 11 12  1  0
 12 13  1  0
 13 14  1  1
 13 15  1  0
 15 16  1  0
 16 17  1  0
 17 18  2  0
 18 19  1  0
 19 20  1  0
 20 21  1  0
 21 22  1  0
 22 23  1  0
 22 24  1  0
 24 25  1  0
 24 26  1  0
 19 27  1  0
 27 28  1  6
 27 29  1  0
 29 30  1  0
 30 31  1  0
 31 32  1  6
  7  5  1  0
 31 10  1  0
 31 13  1  0
 27 15  1  0
 24 18  1  0
  1 33  1  0
  1 34  1  0
  1 35  1  0
  2 36  1  1
  3 37  1  0
  3 38  1  0
  4 39  1  0
  4 40  1  0
  5 41  1  1
  8 42  1  0
  8 43  1  0
  8 44  1  0
  9 45  1  0
  9 46  1  0
  9 47  1  0
 10 48  1  1
 11 49  1  0
 11 50  1  0
 12 51  1  0
 12 52  1  0
 14 53  1  0
 14 54  1  0
 14 55  1  0
 15 56  1  6
 16 57  1  0
 16 58  1  0
 17 59  1  0
 19 60  1  1
 20 61  1  0
 20 62  1  0
 21 63  1  0
 21 64  1  0
 22 65  1  1
 23 66  1  0
 25 67  1  0
 25 68  1  0
 25 69  1  0
 26 70  1  0
 26 71  1  0
 26 72  1  0
 28 73  1  0
 28 74  1  0
 28 75  1  0
 29 76  1  0
 29 77  1  0
 30 78  1  0
 30 79  1  0
 32 80  1  0
 32 81  1  0
 32 82  1  0
M  END
>  <meeko>  (2) 
{"is_sidechain": [false], "intermolecular_energy": 2.731, "internal_energy": -0.839}

$$$$
EPH_relaxed_0001_pdb2pqr_Repair_162_r2_0001_out
     RDKit          3D

 82 86  0  0  0  0  0  0  0  0999 V2000
    0.2180   18.1760   -0.0790 C   0  0  0  0  0  0  0  0  0  0  0  0
    1.3510   17.2520   -0.5330 C   0  0  2  0  0  0  0  0  0  0  0  0
    2.3440   17.9680   -1.4710 C   0  0  0  0  0  0  0  0  0  0  0  0
    3.1340   19.0890   -0.7910 C   0  0  0  0  0  0  0  0  0  0  0  0
    4.2070   18.5460    0.1040 C   0  0  2  0  0  0  0  0  0  0  0  0
    3.7390   17.6670    1.1350 O   0  0  0  0  0  0  0  0  0  0  0  0
    4.3290   18.9010    1.5740 C   0  0  0  0  0  0  0  0  0  0  0  0
    3.3640   19.8360    2.2330 C   0  0  0  0  0  0  0  0  0  0  0  0
    5.6570   18.7290    2.2440 C   0  0  0  0  0  0  0  0  0  0  0  0
    0.7740   16.0230   -1.2250 C   0  0  1  0  0  0  0  0  0  0  0  0
    0.5940   16.2270   -2.7530 C   0  0  0  0  0  0  0  0  0  0  0  0
    0.8830   14.8600   -3.4250 C   0  0  0  0  0  0  0  0  0  0  0  0
    0.8930   13.8460   -2.2570 C   0  0  1  0  0  0  0  0  0  0  0  0
   -0.6120   13.5350   -1.9830 C   0  0  0  0  0  0  0  0  0  0  0  0
    1.7200   12.5390   -2.4830 C   0  0  2  0  0  0  0  0  0  0  0  0
    1.2280   11.6460   -3.6350 C   0  0  0  0  0  0  0  0  0  0  0  0
    0.2230   10.6100   -3.2540 C   0  0  0  0  0  0  0  0  0  0  0  0
   -0.0540   10.2130   -1.9980 C   0  0  0  0  0  0  0  0  0  0  0  0
    0.7470   10.7550   -0.8060 C   0  0  1  0  0  0  0  0  0  0  0  0
    1.1500    9.5810    0.1230 C   0  0  0  0  0  0  0  0  0  0  0  0
   -0.0480    8.7410    0.5580 C   0  0  0  0  0  0  0  0  0  0  0  0
   -0.7830    8.1720   -0.6520 C   0  0  2  0  0  0  0  0  0  0  0  0
    0.0680    7.2270   -1.3070 O   0  0  0  0  0  0  0  0  0  0  0  0
   -1.2300    9.2630   -1.6650 C   0  0  0  0  0  0  0  0  0  0  0  0
   -2.3770   10.1050   -1.0520 C   0  0  0  0  0  0  0  0  0  0  0  0
   -1.8330    8.5460   -2.9040 C   0  0  0  0  0  0  0  0  0  0  0  0
    1.9750   11.6970   -1.1670 C   0  0  1  0  0  0  0  0  0  0  0  0
    3.2480   10.8350   -1.4300 C   0  0  0  0  0  0  0  0  0  0  0  0
    2.3040   12.6100    0.0730 C   0  0  0  0  0  0  0  0  0  0  0  0
    1.5400   13.9430    0.1770 C   0  0  0  0  0  0  0  0  0  0  0  0
    1.5950   14.7110   -1.1480 C   0  0  2  0  0  0  0  0  0  0  0  0
    3.0950   15.0570   -1.4380 C   0  0  0  0  0  0  0  0  0  0  0  0
    0.1850   18.2029    1.0202 H   0  0  0  0  0  0  0  0  0  0  0  0
    0.3951   19.1905   -0.4655 H   0  0  0  0  0  0  0  0  0  0  0  0
   -0.7402   17.7985   -0.4655 H   0  0  0  0  0  0  0  0  0  0  0  0
    1.9078   16.9456    0.3648 H   0  0  0  0  0  0  0  0  0  0  0  0
    3.0574   17.2238   -1.8547 H   0  0  0  0  0  0  0  0  0  0  0  0
    1.7509   18.4331   -2.2722 H   0  0  0  0  0  0  0  0  0  0  0  0
    3.5992   19.7175   -1.5647 H   0  0  0  0  0  0  0  0  0  0  0  0
    2.4367   19.6750   -0.1743 H   0  0  0  0  0  0  0  0  0  0  0  0
    4.9343   18.5589   -0.7211 H   0  0  0  0  0  0  0  0  0  0  0  0
    3.4555   19.7473    3.3256 H   0  0  0  0  0  0  0  0  0  0  0  0
    3.5886   20.8690    1.9289 H   0  0  0  0  0  0  0  0  0  0  0  0
    2.3386   19.5789    1.9289 H   0  0  0  0  0  0  0  0  0  0  0  0
    5.5220   18.7465    3.3355 H   0  0  0  0  0  0  0  0  0  0  0  0
    6.0969   17.7664    1.9443 H   0  0  0  0  0  0  0  0  0  0  0  0
    6.3277   19.5478    1.9443 H   0  0  0  0  0  0  0  0  0  0  0  0
   -0.1620   15.9152   -0.6572 H   0  0  0  0  0  0  0  0  0  0  0  0
   -0.4350   16.5473   -2.9736 H   0  0  0  0  0  0  0  0  0  0  0  0
    1.2752   17.0039   -3.1302 H   0  0  0  0  0  0  0  0  0  0  0  0
    0.0948   14.6094   -4.1502 H   0  0  0  0  0  0  0  0  0  0  0  0
    1.8302   14.8618   -3.9842 H   0  0  0  0  0  0  0  0  0  0  0  0
   -0.7872   13.4988   -0.8977 H   0  0  0  0  0  0  0  0  0  0  0  0
   -1.2364   14.3231   -2.4291 H   0  0  0  0  0  0  0  0  0  0  0  0
   -0.8729   12.5640   -2.4291 H   0  0  0  0  0  0  0  0  0  0  0  0
    2.6960   12.9310   -2.8052 H   0  0  0  0  0  0  0  0  0  0  0  0
    0.7743   12.2952   -4.3984 H   0  0  0  0  0  0  0  0  0  0  0  0
    2.1112   11.0963   -3.9926 H   0  0  0  0  0  0  0  0  0  0  0  0
   -0.3389   10.1303   -4.0689 H   0  0  0  0  0  0  0  0  0  0  0  0
    0.0718   11.4392   -0.2713 H   0  0  0  0  0  0  0  0  0  0  0  0
    1.8583    8.9333   -0.4143 H   0  0  0  0  0  0  0  0  0  0  0  0
    1.6022   10.0118    1.0285 H   0  0  0  0  0  0  0  0  0  0  0  0
    0.3040    7.9111    1.1884 H   0  0  0  0  0  0  0  0  0  0  0  0
   -0.7418    9.3834    1.1201 H   0  0  0  0  0  0  0  0  0  0  0  0
   -1.7008    7.6903   -0.2838 H   0  0  0  0  0  0  0  0  0  0  0  0
    0.6120    6.7990   -0.6240 H   0  0  0  0  0  0  0  0  0  0  0  0
   -2.3177   10.0614    0.0455 H   0  0  0  0  0  0  0  0  0  0  0  0
   -2.2824   11.1497   -1.3832 H   0  0  0  0  0  0  0  0  0  0  0  0
   -3.3453    9.7017   -1.3832 H   0  0  0  0  0  0  0  0  0  0  0  0
   -2.5078    7.7437   -2.5710 H   0  0  0  0  0  0  0  0  0  0  0  0
   -2.3965    9.2714   -3.5092 H   0  0  0  0  0  0  0  0  0  0  0  0
   -1.0217    8.1152   -3.5092 H   0  0  0  0  0  0  0  0  0  0  0  0
    3.6921   10.5343   -0.4696 H   0  0  0  0  0  0  0  0  0  0  0  0
    2.9713    9.9377   -2.0029 H   0  0  0  0  0  0  0  0  0  0  0  0
    3.9784   11.4251   -2.0029 H   0  0  0  0  0  0  0  0  0  0  0  0
    2.0848   12.0293    0.9811 H   0  0  0  0  0  0  0  0  0  0  0  0
    3.3599   12.8927   -0.0503 H   0  0  0  0  0  0  0  0  0  0  0  0
    0.4896   13.7370    0.4303 H   0  0  0  0  0  0  0  0  0  0  0  0
    2.0109   14.5574    0.9585 H   0  0  0  0  0  0  0  0  0  0  0  0
    3.6332   15.1811   -0.4867 H   0  0  0  0  0  0  0  0  0  0  0  0
    3.5544   14.2412   -2.0155 H   0  0  0  0  0  0  0  0  0  0  0  0
    3.1507   15.9916   -2.0155 H   0  0  0  0  0  0  0  0  0  0  0  0
  1  2  1  0
  2  3  1  0
  3  4  1  0
  4  5  1  0
  5  6  1  0
  6  7  1  0
  7  8  1  0
  7  9  1  0
  2 10  1  0
 10 11  1  0
 11 12  1  0
 12 13  1  0
 13 14  1  1
 13 15  1  0
 15 16  1  0
 16 17  1  0
 17 18  2  0
 18 19  1  0
 19 20  1  0
 20 21  1  0
 21 22  1  0
 22 23  1  0
 22 24  1  0
 24 25  1  0
 24 26  1  0
 19 27  1  0
 27 28  1  6
 27 29  1  0
 29 30  1  0
 30 31  1  0
 31 32  1  6
  7  5  1  0
 31 10  1  0
 31 13  1  0
 27 15  1  0
 24 18  1  0
  1 33  1  0
  1 34  1  0
  1 35  1  0
  2 36  1  1
  3 37  1  0
  3 38  1  0
  4 39  1  0
  4 40  1  0
  5 41  1  6
  8 42  1  0
  8 43  1  0
  8 44  1  0
  9 45  1  0
  9 46  1  0
  9 47  1  0
 10 48  1  1
 11 49  1  0
 11 50  1  0
 12 51  1  0
 12 52  1  0
 14 53  1  0
 14 54  1  0
 14 55  1  0
 15 56  1  6
 16 57  1  0
 16 58  1  0
 17 59  1  0
 19 60  1  1
 20 61  1  0
 20 62  1  0
 21 63  1  0
 21 64  1  0
 22 65  1  1
 23 66  1  0
 25 67  1  0
 25 68  1  0
 25 69  1  0
 26 70  1  0
 26 71  1  0
 26 72  1  0
 28 73  1  0
 28 74  1  0
 28 75  1  0
 29 76  1  0
 29 77  1  0
 30 78  1  0
 30 79  1  0
 32 80  1  0
 32 81  1  0
 32 82  1  0
M  END
>  <meeko>  (3) 
{"is_sidechain": [false], "intermolecular_energy": 2.731, "internal_energy": -0.839}

$$$$
EPH_relaxed_0001_pdb2pqr_Repair_162_r2_0001_out
     RDKit          3D

 82 86  0  0  0  0  0  0  0  0999 V2000
    2.1490   18.3000   -2.8470 C   0  0  0  0  0  0  0  0  0  0  0  0
    1.1380   17.7350   -1.8450 C   0  0  2  0  0  0  0  0  0  0  0  0
    1.7130   17.6670   -0.4160 C   0  0  0  0  0  0  0  0  0  0  0  0
    1.4110   18.9080    0.4290 C   0  0  0  0  0  0  0  0  0  0  0  0
    0.2340   19.6680   -0.1030 C   0  0  2  0  0  0  0  0  0  0  0  0
   -0.6420   20.1940    0.9020 O   0  0  0  0  0  0  0  0  0  0  0  0
   -1.2000   19.1920    0.0360 C   0  0  0  0  0  0  0  0  0  0  0  0
   -1.5330   17.9070    0.7260 C   0  0  0  0  0  0  0  0  0  0  0  0
   -2.2250   19.7230   -0.9170 C   0  0  0  0  0  0  0  0  0  0  0  0
    0.6830   16.3500   -2.2900 C   0  0  1  0  0  0  0  0  0  0  0  0
    0.7830   16.1540   -3.8260 C   0  0  0  0  0  0  0  0  0  0  0  0
    1.1750   14.6730   -4.0630 C   0  0  0  0  0  0  0  0  0  0  0  0
    0.9640   13.9890   -2.6920 C   0  0  1  0  0  0  0  0  0  0  0  0
   -0.5690   13.7030   -2.6180 C   0  0  0  0  0  0  0  0  0  0  0  0
    1.8060   12.6990   -2.4260 C   0  0  2  0  0  0  0  0  0  0  0  0
    1.5200   11.5250   -3.3800 C   0  0  0  0  0  0  0  0  0  0  0  0
    0.4530   10.5830   -2.9300 C   0  0  0  0  0  0  0  0  0  0  0  0
   -0.0490   10.5080   -1.6830 C   0  0  0  0  0  0  0  0  0  0  0  0
    0.5290   11.3630   -0.5480 C   0  0  1  0  0  0  0  0  0  0  0  0
    0.7460   10.4790    0.7070 C   0  0  0  0  0  0  0  0  0  0  0  0
   -0.5180    9.7340    1.1240 C   0  0  0  0  0  0  0  0  0  0  0  0
   -1.0290    8.8500   -0.0110 C   0  0  2  0  0  0  0  0  0  0  0  0
   -0.0830    7.8020   -0.2410 O   0  0  0  0  0  0  0  0  0  0  0  0
   -1.2760    9.6310   -1.3320 C   0  0  0  0  0  0  0  0  0  0  0  0
   -2.5060   10.5570   -1.1670 C   0  0  0  0  0  0  0  0  0  0  0  0
   -1.6520    8.6010   -2.4310 C   0  0  0  0  0  0  0  0  0  0  0  0
    1.8110   12.2280   -0.9150 C   0  0  1  0  0  0  0  0  0  0  0  0
    3.1020   11.3750   -0.7190 C   0  0  0  0  0  0  0  0  0  0  0  0
    1.9210   13.4360    0.0880 C   0  0  0  0  0  0  0  0  0  0  0  0
    1.1630   14.7240   -0.2900 C   0  0  0  0  0  0  0  0  0  0  0  0
    1.4630   15.1320   -1.7350 C   0  0  2  0  0  0  0  0  0  0  0  0
    2.9950   15.4480   -1.8350 C   0  0  0  0  0  0  0  0  0  0  0  0
    2.9834   18.7663   -2.3026 H   0  0  0  0  0  0  0  0  0  0  0  0
    2.5330   17.4857   -3.4791 H   0  0  0  0  0  0  0  0  0  0  0  0
    1.6567   19.0538   -3.4791 H   0  0  0  0  0  0  0  0  0  0  0  0
    0.2770   18.4193   -1.8222 H   0  0  0  0  0  0  0  0  0  0  0  0
    1.2835   16.7896    0.0897 H   0  0  0  0  0  0  0  0  0  0  0  0
    2.8068   17.6023   -0.5125 H   0  0  0  0  0  0  0  0  0  0  0  0
    1.1952   18.5930    1.4606 H   0  0  0  0  0  0  0  0  0  0  0  0
    2.2898   19.5686    0.3942 H   0  0  0  0  0  0  0  0  0  0  0  0
    0.8167   20.0110   -0.9706 H   0  0  0  0  0  0  0  0  0  0  0  0
   -1.4946   18.0551    1.8153 H   0  0  0  0  0  0  0  0  0  0  0  0
   -2.5440   17.5859    0.4350 H   0  0  0  0  0  0  0  0  0  0  0  0
   -0.8052   17.1352    0.4350 H   0  0  0  0  0  0  0  0  0  0  0  0
   -3.0623   20.1568   -0.3507 H   0  0  0  0  0  0  0  0  0  0  0  0
   -1.7698   20.4987   -1.5503 H   0  0  0  0  0  0  0  0  0  0  0  0
   -2.5961   18.9037   -1.5503 H   0  0  0  0  0  0  0  0  0  0  0  0
   -0.3411   16.3546   -1.8885 H   0  0  0  0  0  0  0  0  0  0  0  0
   -0.1862   16.3698   -4.2993 H   0  0  0  0  0  0  0  0  0  0  0  0
    1.5281   16.8348   -4.2635 H   0  0  0  0  0  0  0  0  0  0  0  0
    0.5284   14.2178   -4.8276 H   0  0  0  0  0  0  0  0  0  0  0  0
    2.2078   14.5681   -4.4268 H   0  0  0  0  0  0  0  0  0  0  0  0
   -0.8807   13.6448   -1.5647 H   0  0  0  0  0  0  0  0  0  0  0  0
   -1.1179   14.5142   -3.1186 H   0  0  0  0  0  0  0  0  0  0  0  0
   -0.7885   12.7484   -3.1186 H   0  0  0  0  0  0  0  0  0  0  0  0
    2.8280   13.0320   -2.6596 H   0  0  0  0  0  0  0  0  0  0  0  0
    1.2171   11.9426   -4.3515 H   0  0  0  0  0  0  0  0  0  0  0  0
    2.4477   10.9355   -3.4237 H   0  0  0  0  0  0  0  0  0  0  0  0
    0.0422    9.8918   -3.6806 H   0  0  0  0  0  0  0  0  0  0  0  0
   -0.2250   12.1350   -0.3346 H   0  0  0  0  0  0  0  0  0  0  0  0
    1.5331    9.7425    0.4876 H   0  0  0  0  0  0  0  0  0  0  0  0
    1.0316   11.1421    1.5369 H   0  0  0  0  0  0  0  0  0  0  0  0
   -0.2933    9.1044    1.9976 H   0  0  0  0  0  0  0  0  0  0  0  0
   -1.2952   10.4719    1.3718 H   0  0  0  0  0  0  0  0  0  0  0  0
   -2.0030    8.4441    0.2999 H   0  0  0  0  0  0  0  0  0  0  0  0
   -0.4380    7.2340   -0.9460 H   0  0  0  0  0  0  0  0  0  0  0  0
   -2.7090   10.7098   -0.0967 H   0  0  0  0  0  0  0  0  0  0  0  0
   -2.3012   11.5270   -1.6435 H   0  0  0  0  0  0  0  0  0  0  0  0
   -3.3816   10.0920   -1.6435 H   0  0  0  0  0  0  0  0  0  0  0  0
   -1.9926    7.6681   -1.9581 H   0  0  0  0  0  0  0  0  0  0  0  0
   -2.4586    9.0105   -3.0568 H   0  0  0  0  0  0  0  0  0  0  0  0
   -0.7712    8.3946   -3.0568 H   0  0  0  0  0  0  0  0  0  0  0  0
    3.2968   11.2463    0.3559 H   0  0  0  0  0  0  0  0  0  0  0  0
    2.9647   10.3892   -1.1874 H   0  0  0  0  0  0  0  0  0  0  0  0
    3.9550   11.8879   -1.1874 H   0  0  0  0  0  0  0  0  0  0  0  0
    1.5363   13.0968    1.0611 H   0  0  0  0  0  0  0  0  0  0  0  0
    2.9846   13.7165    0.0855 H   0  0  0  0  0  0  0  0  0  0  0  0
    0.0822   14.5504   -0.1821 H   0  0  0  0  0  0  0  0  0  0  0  0
    1.4914   15.5334    0.3785 H   0  0  0  0  0  0  0  0  0  0  0  0
    3.4182   15.5353   -0.8234 H   0  0  0  0  0  0  0  0  0  0  0  0
    3.5024   14.6356   -2.3759 H   0  0  0  0  0  0  0  0  0  0  0  0
    3.1395   16.3949   -2.3759 H   0  0  0  0  0  0  0  0  0  0  0  0
  1  2  1  0
  2  3  1  0
  3  4  1  0
  4  5  1  0
  5  6  1  0
  6  7  1  0
  7  8  1  0
  7  9  1  0
  2 10  1  0
 10 11  1  0
 11 12  1  0
 12 13  1  0
 13 14  1  1
 13 15  1  0
 15 16  1  0
 16 17  1  0
 17 18  2  0
 18 19  1  0
 19 20  1  0
 20 21  1  0
 21 22  1  0
 22 23  1  0
 22 24  1  0
 24 25  1  0
 24 26  1  0
 19 27  1  0
 27 28  1  6
 27 29  1  0
 29 30  1  0
 30 31  1  0
 31 32  1  1
  7  5  1  0
 31 10  1  0
 31 13  1  0
 27 15  1  0
 24 18  1  0
  1 33  1  0
  1 34  1  0
  1 35  1  0
  2 36  1  1
  3 37  1  0
  3 38  1  0
  4 39  1  0
  4 40  1  0
  5 41  1  6
  8 42  1  0
  8 43  1  0
  8 44  1  0
  9 45  1  0
  9 46  1  0
  9 47  1  0
 10 48  1  1
 11 49  1  0
 11 50  1  0
 12 51  1  0
 12 52  1  0
 14 53  1  0
 14 54  1  0
 14 55  1  0
 15 56  1  6
 16 57  1  0
 16 58  1  0
 17 59  1  0
 19 60  1  1
 20 61  1  0
 20 62  1  0
 21 63  1  0
 21 64  1  0
 22 65  1  1
 23 66  1  0
 25 67  1  0
 25 68  1  0
 25 69  1  0
 26 70  1  0
 26 71  1  0
 26 72  1  0
 28 73  1  0
 28 74  1  0
 28 75  1  0
 29 76  1  0
 29 77  1  0
 30 78  1  0
 30 79  1  0
 32 80  1  0
 32 81  1  0
 32 82  1  0
M  END
>  <meeko>  (4) 
{"is_sidechain": [false], "intermolecular_energy": 2.731, "internal_energy": -0.839}

$$$$
EPH_relaxed_0001_pdb2pqr_Repair_162_r2_0001_out
     RDKit          3D

 82 86  0  0  0  0  0  0  0  0999 V2000
    4.5710   16.2770   -0.0480 C   0  0  0  0  0  0  0  0  0  0  0  0
    3.2510   16.9620   -0.4130 C   0  0  2  0  0  0  0  0  0  0  0  0
    2.9910   18.2160    0.4460 C   0  0  0  0  0  0  0  0  0  0  0  0
    2.5990   19.4500   -0.3710 C   0  0  0  0  0  0  0  0  0  0  0  0
    1.8010   19.0820   -1.5850 C   0  0  2  0  0  0  0  0  0  0  0  0
    1.3860   20.1940   -2.3880 O   0  0  0  0  0  0  0  0  0  0  0  0
    0.3370   19.4380   -1.7620 C   0  0  0  0  0  0  0  0  0  0  0  0
   -0.4160   20.1940   -0.7120 C   0  0  0  0  0  0  0  0  0  0  0  0
   -0.4830   18.6340   -2.7230 C   0  0  0  0  0  0  0  0  0  0  0  0
    2.0970   15.9780   -0.2610 C   0  0  1  0  0  0  0  0  0  0  0  0
    0.7270   16.6860   -0.0860 C   0  0  0  0  0  0  0  0  0  0  0  0
   -0.3280   15.8030   -0.8010 C   0  0  0  0  0  0  0  0  0  0  0  0
    0.4020   14.4670   -1.0720 C   0  0  1  0  0  0  0  0  0  0  0  0
    0.3240   13.6870    0.2770 C   0  0  0  0  0  0  0  0  0  0  0  0
   -0.1410   13.6130   -2.2640 C   0  0  2  0  0  0  0  0  0  0  0  0
   -1.5910   13.1230   -2.1090 C   0  0  0  0  0  0  0  0  0  0  0  0
   -1.7480   11.7920   -1.4520 C   0  0  0  0  0  0  0  0  0  0  0  0
   -0.7640   10.8940   -1.2600 C   0  0  0  0  0  0  0  0  0  0  0  0
    0.6460   11.1390   -1.8130 C   0  0  1  0  0  0  0  0  0  0  0  0
    1.1570    9.8550   -2.5160 C   0  0  0  0  0  0  0  0  0  0  0  0
    1.0900    8.6270   -1.6130 C   0  0  0  0  0  0  0  0  0  0  0  0
   -0.3370    8.3820   -1.1310 C   0  0  2  0  0  0  0  0  0  0  0  0
   -1.1470    8.0170   -2.2530 O   0  0  0  0  0  0  0  0  0  0  0  0
   -0.9620    9.6120   -0.4140 C   0  0  0  0  0  0  0  0  0  0  0  0
   -0.2700    9.8220    0.9560 C   0  0  0  0  0  0  0  0  0  0  0  0
   -2.4470    9.2810   -0.1050 C   0  0  0  0  0  0  0  0  0  0  0  0
    0.8210   12.4380   -2.7110 C   0  0  1  0  0  0  0  0  0  0  0  0
    0.4660   12.1120   -4.1940 C   0  0  0  0  0  0  0  0  0  0  0  0
    2.3360   12.8690   -2.7020 C   0  0  0  0  0  0  0  0  0  0  0  0
    2.7830   13.8100   -1.5660 C   0  0  0  0  0  0  0  0  0  0  0  0
    1.8330   15.0040   -1.4370 C   0  0  2  0  0  0  0  0  0  0  0  0
    1.9070   15.8200   -2.7720 C   0  0  0  0  0  0  0  0  0  0  0  0
    4.6677   16.2268    1.0466 H   0  0  0  0  0  0  0  0  0  0  0  0
    4.5831   15.2588   -0.4642 H   0  0  0  0  0  0  0  0  0  0  0  0
    5.4105   16.8532   -0.4642 H   0  0  0  0  0  0  0  0  0  0  0  0
    3.3256   17.2894   -1.4605 H   0  0  0  0  0  0  0  0  0  0  0  0
    2.1759   17.9921    1.1500 H   0  0  0  0  0  0  0  0  0  0  0  0
    3.9340   18.4559    0.9591 H   0  0  0  0  0  0  0  0  0  0  0  0
    1.9974   20.1195    0.2613 H   0  0  0  0  0  0  0  0  0  0  0  0
    3.5219   19.9465   -0.7055 H   0  0  0  0  0  0  0  0  0  0  0  0
    2.3469   18.1324   -1.6856 H   0  0  0  0  0  0  0  0  0  0  0  0
   -0.0871   19.8638    0.2844 H   0  0  0  0  0  0  0  0  0  0  0  0
   -0.2208   21.2707   -0.8244 H   0  0  0  0  0  0  0  0  0  0  0  0
   -1.4934   20.0030   -0.8244 H   0  0  0  0  0  0  0  0  0  0  0  0
   -1.1590   17.9712   -2.1630 H   0  0  0  0  0  0  0  0  0  0  0  0
   -1.0750   19.3114   -3.3560 H   0  0  0  0  0  0  0  0  0  0  0  0
    0.1826   18.0288   -3.3560 H   0  0  0  0  0  0  0  0  0  0  0  0
    2.4464   15.4192    0.6197 H   0  0  0  0  0  0  0  0  0  0  0  0
    0.4822   16.7783    0.9824 H   0  0  0  0  0  0  0  0  0  0  0  0
    0.7488   17.6993   -0.5136 H   0  0  0  0  0  0  0  0  0  0  0  0
   -1.2034   15.6432   -0.1544 H   0  0  0  0  0  0  0  0  0  0  0  0
   -0.7049   16.2676   -1.7241 H   0  0  0  0  0  0  0  0  0  0  0  0
    0.3949   14.3959    1.1151 H   0  0  0  0  0  0  0  0  0  0  0  0
   -0.6326   13.1469    0.3335 H   0  0  0  0  0  0  0  0  0  0  0  0
    1.1547   12.9682    0.3335 H   0  0  0  0  0  0  0  0  0  0  0  0
   -0.1586   14.3425   -3.0871 H   0  0  0  0  0  0  0  0  0  0  0  0
   -2.1380   13.8649   -1.5087 H   0  0  0  0  0  0  0  0  0  0  0  0
   -1.9833   13.0062   -3.1300 H   0  0  0  0  0  0  0  0  0  0  0  0
   -2.7527   11.5222   -1.0946 H   0  0  0  0  0  0  0  0  0  0  0  0
    1.2798   11.3641   -0.9426 H   0  0  0  0  0  0  0  0  0  0  0  0
    0.5390    9.6713   -3.4073 H   0  0  0  0  0  0  0  0  0  0  0  0
    2.2122   10.0171   -2.7811 H   0  0  0  0  0  0  0  0  0  0  0  0
    1.4361    7.7473   -2.1754 H   0  0  0  0  0  0  0  0  0  0  0  0
    1.7319    8.8001   -0.7366 H   0  0  0  0  0  0  0  0  0  0  0  0
   -0.2988    7.5717   -0.3880 H   0  0  0  0  0  0  0  0  0  0  0  0
   -1.2350    8.8020   -2.8200 H   0  0  0  0  0  0  0  0  0  0  0  0
   -0.9838    9.6054    1.7644 H   0  0  0  0  0  0  0  0  0  0  0  0
    0.5934    9.1454    1.0382 H   0  0  0  0  0  0  0  0  0  0  0  0
    0.0718   10.8643    1.0382 H   0  0  0  0  0  0  0  0  0  0  0  0
   -2.5962    9.2477    0.9843 H   0  0  0  0  0  0  0  0  0  0  0  0
   -3.0939   10.0570   -0.5402 H   0  0  0  0  0  0  0  0  0  0  0  0
   -2.7031    8.3037   -0.5402 H   0  0  0  0  0  0  0  0  0  0  0  0
   -0.3439   11.3682   -4.2222 H   0  0  0  0  0  0  0  0  0  0  0  0
    0.1383   13.0304   -4.7030 H   0  0  0  0  0  0  0  0  0  0  0  0
    1.3532   11.7074   -4.7030 H   0  0  0  0  0  0  0  0  0  0  0  0
    2.9422   11.9536   -2.6341 H   0  0  0  0  0  0  0  0  0  0  0  0
    2.4768   13.4469   -3.6273 H   0  0  0  0  0  0  0  0  0  0  0  0
    2.7900   13.2518   -0.6182 H   0  0  0  0  0  0  0  0  0  0  0  0
    3.7900   14.1867   -1.7986 H   0  0  0  0  0  0  0  0  0  0  0  0
    2.0042   16.8913   -2.5420 H   0  0  0  0  0  0  0  0  0  0  0  0
    2.7789   15.4898   -3.3557 H   0  0  0  0  0  0  0  0  0  0  0  0
    0.9899   15.6520   -3.3557 H   0  0  0  0  0  0  0  0  0  0  0  0
  1  2  1  0
  2  3  1  0
  3  4  1  0
  4  5  1  0
  5  6  1  0
  6  7  1  0
  7  8  1  0
  7  9  1  0
  2 10  1  0
 10 11  1  0
 11 12  1  0
 12 13  1  0
 13 14  1  1
 13 15  1  0
 15 16  1  0
 16 17  1  0
 17 18  2  0
 18 19  1  0
 19 20  1  0
 20 21  1  0
 21 22  1  0
 22 23  1  0
 22 24  1  0
 24 25  1  0
 24 26  1  0
 19 27  1  0
 27 28  1  6
 27 29  1  0
 29 30  1  0
 30 31  1  0
 31 32  1  6
  7  5  1  0
 31 10  1  0
 31 13  1  0
 27 15  1  0
 24 18  1  0
  1 33  1  0
  1 34  1  0
  1 35  1  0
  2 36  1  6
  3 37  1  0
  3 38  1  0
  4 39  1  0
  4 40  1  0
  5 41  1  6
  8 42  1  0
  8 43  1  0
  8 44  1  0
  9 45  1  0
  9 46  1  0
  9 47  1  0
 10 48  1  1
 11 49  1  0
 11 50  1  0
 12 51  1  0
 12 52  1  0
 14 53  1  0
 14 54  1  0
 14 55  1  0
 15 56  1  6
 16 57  1  0
 16 58  1  0
 17 59  1  0
 19 60  1  1
 20 61  1  0
 20 62  1  0
 21 63  1  0
 21 64  1  0
 22 65  1  1
 23 66  1  0
 25 67  1  0
 25 68  1  0
 25 69  1  0
 26 70  1  0
 26 71  1  0
 26 72  1  0
 28 73  1  0
 28 74  1  0
 28 75  1  0
 29 76  1  0
 29 77  1  0
 30 78  1  0
 30 79  1  0
 32 80  1  0
 32 81  1  0
 32 82  1  0
M  END
>  <meeko>  (5) 
{"is_sidechain": [false], "intermolecular_energy": 2.731, "internal_energy": -0.839}

$$$$
EPH_relaxed_0001_pdb2pqr_Repair_162_r2_0001_out
     RDKit          3D

 82 86  0  0  0  0  0  0  0  0999 V2000
   -5.0900    5.9390   -1.8600 C   0  0  0  0  0  0  0  0  0  0  0  0
   -5.4440    7.4290   -1.8400 C   0  0  2  0  0  0  0  0  0  0  0  0
   -5.2410    8.0540   -0.4450 C   0  0  0  0  0  0  0  0  0  0  0  0
   -4.1880    9.1660   -0.4160 C   0  0  0  0  0  0  0  0  0  0  0  0
   -2.8310    8.6530   -0.7940 C   0  0  2  0  0  0  0  0  0  0  0  0
   -1.7910    8.9650    0.1440 O   0  0  0  0  0  0  0  0  0  0  0  0
   -1.6680    9.5560   -1.1600 C   0  0  0  0  0  0  0  0  0  0  0  0
   -1.8090   11.0460   -1.1680 C   0  0  0  0  0  0  0  0  0  0  0  0
   -0.5490    8.9870   -1.9760 C   0  0  0  0  0  0  0  0  0  0  0  0
   -6.8850    7.6270   -2.2950 C   0  0  1  0  0  0  0  0  0  0  0  0
   -7.1890    6.9180   -3.6410 C   0  0  0  0  0  0  0  0  0  0  0  0
   -8.6550    6.4190   -3.5630 C   0  0  0  0  0  0  0  0  0  0  0  0
   -9.2460    7.1370   -2.3280 C   0  0  1  0  0  0  0  0  0  0  0  0
   -9.6260    8.5630   -2.8360 C   0  0  0  0  0  0  0  0  0  0  0  0
  -10.4550    6.4320   -1.6310 C   0  0  2  0  0  0  0  0  0  0  0  0
  -11.7120    6.2790   -2.5040 C   0  0  0  0  0  0  0  0  0  0  0  0
  -12.6860    7.4080   -2.4230 C   0  0  0  0  0  0  0  0  0  0  0  0
  -12.7000    8.3620   -1.4740 C   0  0  0  0  0  0  0  0  0  0  0  0
  -11.7260    8.3100   -0.2900 C   0  0  1  0  0  0  0  0  0  0  0  0
  -12.4980    8.5830    1.0280 C   0  0  0  0  0  0  0  0  0  0  0  0
  -13.2910    9.8850    0.9820 C   0  0  0  0  0  0  0  0  0  0  0  0
  -14.2890    9.8760   -0.1740 C   0  0  2  0  0  0  0  0  0  0  0  0
  -15.2870    8.8850    0.0880 O   0  0  0  0  0  0  0  0  0  0  0  0
  -13.6270    9.6000   -1.5530 C   0  0  0  0  0  0  0  0  0  0  0  0
  -12.7730   10.8210   -1.9740 C   0  0  0  0  0  0  0  0  0  0  0  0
  -14.7590    9.4760   -2.6090 C   0  0  0  0  0  0  0  0  0  0  0  0
  -10.8100    7.0140   -0.2030 C   0  0  1  0  0  0  0  0  0  0  0  0
  -11.5590    5.8830    0.5650 C   0  0  0  0  0  0  0  0  0  0  0  0
   -9.5250    7.3490    0.6430 C   0  0  0  0  0  0  0  0  0  0  0  0
   -8.3220    7.9330   -0.1220 C   0  0  0  0  0  0  0  0  0  0  0  0
   -8.0040    7.0950   -1.3650 C   0  0  2  0  0  0  0  0  0  0  0  0
   -7.5960    5.6600   -0.8830 C   0  0  0  0  0  0  0  0  0  0  0  0
   -5.0021    5.5691   -0.8278 H   0  0  0  0  0  0  0  0  0  0  0  0
   -5.8806    5.3813   -2.3833 H   0  0  0  0  0  0  0  0  0  0  0  0
   -4.1330    5.7965   -2.3833 H   0  0  0  0  0  0  0  0  0  0  0  0
   -4.7618    7.9413   -2.5343 H   0  0  0  0  0  0  0  0  0  0  0  0
   -6.2004    8.4753   -0.1103 H   0  0  0  0  0  0  0  0  0  0  0  0
   -4.8808    7.2527    0.2170 H   0  0  0  0  0  0  0  0  0  0  0  0
   -4.4817    9.9540   -1.1251 H   0  0  0  0  0  0  0  0  0  0  0  0
   -4.1328    9.5600    0.6095 H   0  0  0  0  0  0  0  0  0  0  0  0
   -3.2740    7.7803   -1.2962 H   0  0  0  0  0  0  0  0  0  0  0  0
   -1.8441   11.4165   -0.1329 H   0  0  0  0  0  0  0  0  0  0  0  0
   -0.9491   11.4929   -1.6885 H   0  0  0  0  0  0  0  0  0  0  0  0
   -2.7374   11.3237   -1.6885 H   0  0  0  0  0  0  0  0  0  0  0  0
    0.2288    8.5915   -1.3063 H   0  0  0  0  0  0  0  0  0  0  0  0
   -0.9340    8.1752   -2.6106 H   0  0  0  0  0  0  0  0  0  0  0  0
   -0.1198    9.7763   -2.6106 H   0  0  0  0  0  0  0  0  0  0  0  0
   -6.9172    8.7259   -2.3319 H   0  0  0  0  0  0  0  0  0  0  0  0
   -7.0734    7.6248   -4.4759 H   0  0  0  0  0  0  0  0  0  0  0  0
   -6.4957    6.0813   -3.8119 H   0  0  0  0  0  0  0  0  0  0  0  0
   -9.2077    6.6939   -4.4734 H   0  0  0  0  0  0  0  0  0  0  0  0
   -8.7191    5.3241   -3.4794 H   0  0  0  0  0  0  0  0  0  0  0  0
   -9.8022    9.2242   -1.9747 H   0  0  0  0  0  0  0  0  0  0  0  0
   -8.8040    8.9662   -3.4457 H   0  0  0  0  0  0  0  0  0  0  0  0
  -10.5397    8.5037   -3.4457 H   0  0  0  0  0  0  0  0  0  0  0  0
  -10.0744    5.4120   -1.4736 H   0  0  0  0  0  0  0  0  0  0  0  0
  -11.3890    6.1832   -3.5511 H   0  0  0  0  0  0  0  0  0  0  0  0
  -12.2409    5.3928   -2.1233 H   0  0  0  0  0  0  0  0  0  0  0  0
  -13.4573    7.4646   -3.2052 H   0  0  0  0  0  0  0  0  0  0  0  0
  -10.9914    9.1099   -0.4648 H   0  0  0  0  0  0  0  0  0  0  0  0
  -13.1955    7.7514    1.2069 H   0  0  0  0  0  0  0  0  0  0  0  0
  -11.7575    8.6713    1.8367 H   0  0  0  0  0  0  0  0  0  0  0  0
  -13.8378   10.0071    1.9286 H   0  0  0  0  0  0  0  0  0  0  0  0
  -12.5888   10.7185    0.8330 H   0  0  0  0  0  0  0  0  0  0  0  0
  -14.7327   10.8806   -0.2355 H   0  0  0  0  0  0  0  0  0  0  0  0
  -15.6790    8.6290   -0.7640 H   0  0  0  0  0  0  0  0  0  0  0  0
  -12.4091   11.3412   -1.0757 H   0  0  0  0  0  0  0  0  0  0  0  0
  -11.9156   10.4798   -2.5727 H   0  0  0  0  0  0  0  0  0  0  0  0
  -13.3876   11.5094   -2.5727 H   0  0  0  0  0  0  0  0  0  0  0  0
  -15.7272    9.3699   -2.0979 H   0  0  0  0  0  0  0  0  0  0  0  0
  -14.7736   10.3779   -3.2385 H   0  0  0  0  0  0  0  0  0  0  0  0
  -14.5780    8.5923   -3.2385 H   0  0  0  0  0  0  0  0  0  0  0  0
  -11.4531    6.0430    1.6481 H   0  0  0  0  0  0  0  0  0  0  0  0
  -12.6251    5.8999    0.2944 H   0  0  0  0  0  0  0  0  0  0  0  0
  -11.1274    4.9081    0.2944 H   0  0  0  0  0  0  0  0  0  0  0  0
   -9.8149    8.0782    1.4138 H   0  0  0  0  0  0  0  0  0  0  0  0
   -9.1762    6.3810    1.0319 H   0  0  0  0  0  0  0  0  0  0  0  0
   -8.5576    8.9618   -0.4321 H   0  0  0  0  0  0  0  0  0  0  0  0
   -7.4451    7.9226    0.5421 H   0  0  0  0  0  0  0  0  0  0  0  0
   -7.5878    5.6311    0.2166 H   0  0  0  0  0  0  0  0  0  0  0  0
   -8.3209    4.9254   -1.2637 H   0  0  0  0  0  0  0  0  0  0  0  0
   -6.5931    5.4167   -1.2637 H   0  0  0  0  0  0  0  0  0  0  0  0
  1  2  1  0
  2  3  1  0
  3  4  1  0
  4  5  1  0
  5  6  1  0
  6  7  1  0
  7  8  1  0
  7  9  1  0
  2 10  1  0
 10 11  1  0
 11 12  1  0
 12 13  1  0
 13 14  1  6
 13 15  1  0
 15 16  1  0
 16 17  1  0
 17 18  2  0
 18 19  1  0
 19 20  1  0
 20 21  1  0
 21 22  1  0
 22 23  1  0
 22 24  1  0
 24 25  1  0
 24 26  1  0
 19 27  1  0
 27 28  1  1
 27 29  1  0
 29 30  1  0
 30 31  1  0
 31 32  1  1
  7  5  1  0
 31 10  1  0
 31 13  1  0
 27 15  1  0
 24 18  1  0
  1 33  1  0
  1 34  1  0
  1 35  1  0
  2 36  1  6
  3 37  1  0
  3 38  1  0
  4 39  1  0
  4 40  1  0
  5 41  1  6
  8 42  1  0
  8 43  1  0
  8 44  1  0
  9 45  1  0
  9 46  1  0
  9 47  1  0
 10 48  1  6
 11 49  1  0
 11 50  1  0
 12 51  1  0
 12 52  1  0
 14 53  1  0
 14 54  1  0
 14 55  1  0
 15 56  1  1
 16 57  1  0
 16 58  1  0
 17 59  1  0
 19 60  1  6
 20 61  1  0
 20 62  1  0
 21 63  1  0
 21 64  1  0
 22 65  1  6
 23 66  1  0
 25 67  1  0
 25 68  1  0
 25 69  1  0
 26 70  1  0
 26 71  1  0
 26 72  1  0
 28 73  1  0
 28 74  1  0
 28 75  1  0
 29 76  1  0
 29 77  1  0
 30 78  1  0
 30 79  1  0
 32 80  1  0
 32 81  1  0
 32 82  1  0
M  END
>  <meeko>  (6) 
{"is_sidechain": [false], "intermolecular_energy": 2.731, "internal_energy": -0.839}

$$$$
EPH_relaxed_0001_pdb2pqr_Repair_162_r2_0001_out
     RDKit          3D

 82 86  0  0  0  0  0  0  0  0999 V2000
    0.3550    9.2920   -2.8690 C   0  0  0  0  0  0  0  0  0  0  0  0
    1.2950   10.2900   -3.5510 C   0  0  2  0  0  0  0  0  0  0  0  0
    2.7640   10.0890   -3.1260 C   0  0  0  0  0  0  0  0  0  0  0  0
    3.7760   10.6960   -4.1010 C   0  0  0  0  0  0  0  0  0  0  0  0
    5.1330   10.8310   -3.4800 C   0  0  2  0  0  0  0  0  0  0  0  0
    5.8170   12.0500   -3.7960 O   0  0  0  0  0  0  0  0  0  0  0  0
    6.4220   10.8400   -4.2790 C   0  0  0  0  0  0  0  0  0  0  0  0
    6.4170   10.7100   -5.7700 C   0  0  0  0  0  0  0  0  0  0  0  0
    7.6980   10.4840   -3.5830 C   0  0  0  0  0  0  0  0  0  0  0  0
    0.8540   11.7150   -3.2410 C   0  0  1  0  0  0  0  0  0  0  0  0
   -0.6840   11.8420   -3.0760 C   0  0  0  0  0  0  0  0  0  0  0  0
   -0.9310   12.9160   -1.9850 C   0  0  0  0  0  0  0  0  0  0  0  0
    0.4420   13.6030   -1.7980 C   0  0  1  0  0  0  0  0  0  0  0  0
    0.5380   14.6320   -2.9680 C   0  0  0  0  0  0  0  0  0  0  0  0
    0.6920   14.2810   -0.4110 C   0  0  2  0  0  0  0  0  0  0  0  0
   -0.2600   15.4410   -0.0700 C   0  0  0  0  0  0  0  0  0  0  0  0
    0.2040   16.7930   -0.4990 C   0  0  0  0  0  0  0  0  0  0  0  0
    1.4580   17.1070   -0.8760 C   0  0  0  0  0  0  0  0  0  0  0  0
    2.5860   16.0710   -0.8000 C   0  0  1  0  0  0  0  0  0  0  0  0
    3.8360   16.7130   -0.1440 C   0  0  0  0  0  0  0  0  0  0  0  0
    4.2700   17.9970   -0.8430 C   0  0  0  0  0  0  0  0  0  0  0  0
    3.1410   19.0240   -0.8470 C   0  0  2  0  0  0  0  0  0  0  0  0
    2.8940   19.4430    0.4990 O   0  0  0  0  0  0  0  0  0  0  0  0
    1.8250   18.4870   -1.4760 C   0  0  0  0  0  0  0  0  0  0  0  0
    2.0100   18.3180   -3.0050 C   0  0  0  0  0  0  0  0  0  0  0  0
    0.7290   19.5700   -1.2890 C   0  0  0  0  0  0  0  0  0  0  0  0
    2.2020   14.6750   -0.1450 C   0  0  1  0  0  0  0  0  0  0  0  0
    2.3770   14.7470    1.4030 C   0  0  0  0  0  0  0  0  0  0  0  0
    3.2060   13.5740   -0.6540 C   0  0  0  0  0  0  0  0  0  0  0  0
    2.8430   12.8570   -1.9690 C   0  0  0  0  0  0  0  0  0  0  0  0
    1.3940   12.3600   -1.9400 C   0  0  2  0  0  0  0  0  0  0  0  0
    1.2720   11.3060   -0.7870 C   0  0  0  0  0  0  0  0  0  0  0  0
    0.4466    9.3893   -1.7771 H   0  0  0  0  0  0  0  0  0  0  0  0
   -0.6822    9.5007   -3.1700 H   0  0  0  0  0  0  0  0  0  0  0  0
    0.6254    8.2691   -3.1700 H   0  0  0  0  0  0  0  0  0  0  0  0
    1.2375   10.1103   -4.6347 H   0  0  0  0  0  0  0  0  0  0  0  0
    2.9075   10.5568   -2.1408 H   0  0  0  0  0  0  0  0  0  0  0  0
    2.9472    9.0045   -3.1068 H   0  0  0  0  0  0  0  0  0  0  0  0
    3.8520   10.0468   -4.9857 H   0  0  0  0  0  0  0  0  0  0  0  0
    3.4245   11.7009   -4.3779 H   0  0  0  0  0  0  0  0  0  0  0  0
    4.8141   10.2513   -2.6013 H   0  0  0  0  0  0  0  0  0  0  0  0
    6.3761    9.6457   -6.0451 H   0  0  0  0  0  0  0  0  0  0  0  0
    5.5381   11.2289   -6.1804 H   0  0  0  0  0  0  0  0  0  0  0  0
    7.3331   11.1598   -6.1804 H   0  0  0  0  0  0  0  0  0  0  0  0
    7.5460   10.5264   -2.4944 H   0  0  0  0  0  0  0  0  0  0  0  0
    8.0016    9.4669   -3.8715 H   0  0  0  0  0  0  0  0  0  0  0  0
    8.4843   11.1971   -3.8715 H   0  0  0  0  0  0  0  0  0  0  0  0
    1.2709   12.2314   -4.1182 H   0  0  0  0  0  0  0  0  0  0  0  0
   -1.1421   12.1549   -4.0259 H   0  0  0  0  0  0  0  0  0  0  0  0
   -1.1309   10.8786   -2.7894 H   0  0  0  0  0  0  0  0  0  0  0  0
   -1.6867   13.6423   -2.3188 H   0  0  0  0  0  0  0  0  0  0  0  0
   -1.3113   12.4809   -1.0490 H   0  0  0  0  0  0  0  0  0  0  0  0
    0.6328   15.6476   -2.5562 H   0  0  0  0  0  0  0  0  0  0  0  0
    1.4187   14.4033   -3.5861 H   0  0  0  0  0  0  0  0  0  0  0  0
   -0.3698   14.5702   -3.5861 H   0  0  0  0  0  0  0  0  0  0  0  0
    0.4434   13.4740    0.2940 H   0  0  0  0  0  0  0  0  0  0  0  0
   -1.2259   15.2426   -0.5574 H   0  0  0  0  0  0  0  0  0  0  0  0
   -0.3193   15.4736    1.0279 H   0  0  0  0  0  0  0  0  0  0  0  0
   -0.5417   17.6016   -0.5080 H   0  0  0  0  0  0  0  0  0  0  0  0
    2.8125   15.7917   -1.8395 H   0  0  0  0  0  0  0  0  0  0  0  0
    3.6033   16.9446    0.9059 H   0  0  0  0  0  0  0  0  0  0  0  0
    4.6631   15.9925   -0.2264 H   0  0  0  0  0  0  0  0  0  0  0  0
    5.1382   18.4185   -0.3152 H   0  0  0  0  0  0  0  0  0  0  0  0
    4.5316   17.7587   -1.8845 H   0  0  0  0  0  0  0  0  0  0  0  0
    3.4661   19.8679   -1.4732 H   0  0  0  0  0  0  0  0  0  0  0  0
    1.9310   19.5170    0.6130 H   0  0  0  0  0  0  0  0  0  0  0  0
    2.8094   17.5877   -3.1991 H   0  0  0  0  0  0  0  0  0  0  0  0
    1.0702   17.9600   -3.4507 H   0  0  0  0  0  0  0  0  0  0  0  0
    2.2817   19.2863   -3.4507 H   0  0  0  0  0  0  0  0  0  0  0  0
    0.5590   19.7380   -0.2153 H   0  0  0  0  0  0  0  0  0  0  0  0
    1.0569   20.5086   -1.7596 H   0  0  0  0  0  0  0  0  0  0  0  0
   -0.2056   19.2309   -1.7596 H   0  0  0  0  0  0  0  0  0  0  0  0
    1.4661   14.3722    1.8928 H   0  0  0  0  0  0  0  0  0  0  0  0
    3.2359   14.1292    1.7040 H   0  0  0  0  0  0  0  0  0  0  0  0
    2.5524   15.7904    1.7040 H   0  0  0  0  0  0  0  0  0  0  0  0
    4.1842   14.0563   -0.7970 H   0  0  0  0  0  0  0  0  0  0  0  0
    3.1872   12.7891    0.1164 H   0  0  0  0  0  0  0  0  0  0  0  0
    2.9662   13.5584   -2.8073 H   0  0  0  0  0  0  0  0  0  0  0  0
    3.5090   11.9902   -2.0916 H   0  0  0  0  0  0  0  0  0  0  0  0
    1.3312   11.8174    0.1851 H   0  0  0  0  0  0  0  0  0  0  0  0
    0.3074   10.7836   -0.8683 H   0  0  0  0  0  0  0  0  0  0  0  0
    2.0918   10.5770   -0.8683 H   0  0  0  0  0  0  0  0  0  0  0  0
  1  2  1  0
  2  3  1  0
  3  4  1  0
  4  5  1  0
  5  6  1  0
  6  7  1  0
  7  8  1  0
  7  9  1  0
  2 10  1  0
 10 11  1  0
 11 12  1  0
 12 13  1  0
 13 14  1  6
 13 15  1  0
 15 16  1  0
 16 17  1  0
 17 18  2  0
 18 19  1  0
 19 20  1  0
 20 21  1  0
 21 22  1  0
 22 23  1  0
 22 24  1  0
 24 25  1  0
 24 26  1  0
 19 27  1  0
 27 28  1  1
 27 29  1  0
 29 30  1  0
 30 31  1  0
 31 32  1  1
  7  5  1  0
 31 10  1  0
 31 13  1  0
 27 15  1  0
 24 18  1  0
  1 33  1  0
  1 34  1  0
  1 35  1  0
  2 36  1  6
  3 37  1  0
  3 38  1  0
  4 39  1  0
  4 40  1  0
  5 41  1  1
  8 42  1  0
  8 43  1  0
  8 44  1  0
  9 45  1  0
  9 46  1  0
  9 47  1  0
 10 48  1  6
 11 49  1  0
 11 50  1  0
 12 51  1  0
 12 52  1  0
 14 53  1  0
 14 54  1  0
 14 55  1  0
 15 56  1  1
 16 57  1  0
 16 58  1  0
 17 59  1  0
 19 60  1  6
 20 61  1  0
 20 62  1  0
 21 63  1  0
 21 64  1  0
 22 65  1  6
 23 66  1  0
 25 67  1  0
 25 68  1  0
 25 69  1  0
 26 70  1  0
 26 71  1  0
 26 72  1  0
 28 73  1  0
 28 74  1  0
 28 75  1  0
 29 76  1  0
 29 77  1  0
 30 78  1  0
 30 79  1  0
 32 80  1  0
 32 81  1  0
 32 82  1  0
M  END
>  <meeko>  (7) 
{"is_sidechain": [false], "intermolecular_energy": 2.731, "internal_energy": -0.839}

$$$$
EPH_relaxed_0001_pdb2pqr_Repair_162_r2_0001_out
     RDKit          3D

 82 86  0  0  0  0  0  0  0  0999 V2000
    0.1020   17.7560   -2.5030 C   0  0  0  0  0  0  0  0  0  0  0  0
   -0.1860   16.8200   -1.3250 C   0  0  2  0  0  0  0  0  0  0  0  0
   -0.2880   17.5830    0.0110 C   0  0  0  0  0  0  0  0  0  0  0  0
    0.4460   18.9270    0.0100 C   0  0  0  0  0  0  0  0  0  0  0  0
    1.7520   18.8460    0.7410 C   0  0  2  0  0  0  0  0  0  0  0  0
    2.6400   19.9460    0.5050 O   0  0  0  0  0  0  0  0  0  0  0  0
    3.0880   18.6600    0.0480 C   0  0  0  0  0  0  0  0  0  0  0  0
    3.1850   18.5430   -1.4410 C   0  0  0  0  0  0  0  0  0  0  0  0
    4.2330   18.1050    0.8370 C   0  0  0  0  0  0  0  0  0  0  0  0
    0.8980   15.7530   -1.2330 C   0  0  1  0  0  0  0  0  0  0  0  0
    1.0680   15.1960    0.2050 C   0  0  0  0  0  0  0  0  0  0  0  0
    1.4250   13.6940    0.0640 C   0  0  0  0  0  0  0  0  0  0  0  0
    1.7750   13.5150   -1.4320 C   0  0  1  0  0  0  0  0  0  0  0  0
    3.2500   14.0080   -1.5610 C   0  0  0  0  0  0  0  0  0  0  0  0
    1.5930   12.0760   -2.0160 C   0  0  2  0  0  0  0  0  0  0  0  0
    2.4870   10.9970   -1.3810 C   0  0  0  0  0  0  0  0  0  0  0  0
    3.8100   10.7940   -2.0410 C   0  0  0  0  0  0  0  0  0  0  0  0
    4.1520   11.2440   -3.2630 C   0  0  0  0  0  0  0  0  0  0  0  0
    3.1260   11.9550   -4.1550 C   0  0  1  0  0  0  0  0  0  0  0  0
    3.2020   11.3770   -5.5930 C   0  0  0  0  0  0  0  0  0  0  0  0
    4.6130   11.4280   -6.1710 C   0  0  0  0  0  0  0  0  0  0  0  0
    5.5930   10.6610   -5.2860 C   0  0  2  0  0  0  0  0  0  0  0  0
    5.2630    9.2700   -5.3310 O   0  0  0  0  0  0  0  0  0  0  0  0
    5.5970   11.1500   -3.8100 C   0  0  0  0  0  0  0  0  0  0  0  0
    6.2400   12.5560   -3.7290 C   0  0  0  0  0  0  0  0  0  0  0  0
    6.5210   10.2030   -2.9970 C   0  0  0  0  0  0  0  0  0  0  0  0
    1.6390   12.0080   -3.5970 C   0  0  1  0  0  0  0  0  0  0  0  0
    0.8690   10.7170   -4.0090 C   0  0  0  0  0  0  0  0  0  0  0  0
    0.8800   13.2120   -4.2700 C   0  0  0  0  0  0  0  0  0  0  0  0
    1.0000   14.5830   -3.5780 C   0  0  0  0  0  0  0  0  0  0  0  0
    0.7060   14.4690   -2.0790 C   0  0  2  0  0  0  0  0  0  0  0  0
   -0.7790   13.9970   -1.9180 C   0  0  0  0  0  0  0  0  0  0  0  0
    0.4055   18.7423   -2.1220 H   0  0  0  0  0  0  0  0  0  0  0  0
    0.9121   17.3348   -3.1165 H   0  0  0  0  0  0  0  0  0  0  0  0
   -0.8048   17.8631   -3.1165 H   0  0  0  0  0  0  0  0  0  0  0  0
   -1.1610   16.3454   -1.5097 H   0  0  0  0  0  0  0  0  0  0  0  0
   -1.3510   17.7680    0.2250 H   0  0  0  0  0  0  0  0  0  0  0  0
    0.1913   16.9556    0.7769 H   0  0  0  0  0  0  0  0  0  0  0  0
    0.6380   19.2276   -1.0306 H   0  0  0  0  0  0  0  0  0  0  0  0
   -0.1887   19.6647    0.5227 H   0  0  0  0  0  0  0  0  0  0  0  0
    1.2761   18.3174    1.5801 H   0  0  0  0  0  0  0  0  0  0  0  0
    3.8673   17.7201   -1.7005 H   0  0  0  0  0  0  0  0  0  0  0  0
    2.1881   18.3382   -1.8584 H   0  0  0  0  0  0  0  0  0  0  0  0
    3.5709   19.4847   -1.8584 H   0  0  0  0  0  0  0  0  0  0  0  0
    4.0216   18.2075    1.9116 H   0  0  0  0  0  0  0  0  0  0  0  0
    4.3676   17.0417    0.5895 H   0  0  0  0  0  0  0  0  0  0  0  0
    5.1511   18.6581    0.5895 H   0  0  0  0  0  0  0  0  0  0  0  0
    1.7553   16.3288   -1.6117 H   0  0  0  0  0  0  0  0  0  0  0  0
    1.8768   15.7303    0.7250 H   0  0  0  0  0  0  0  0  0  0  0  0
    0.1470   15.3295    0.7915 H   0  0  0  0  0  0  0  0  0  0  0  0
    2.2870   13.4386    0.6978 H   0  0  0  0  0  0  0  0  0  0  0  0
    0.6011   13.0378    0.3811 H   0  0  0  0  0  0  0  0  0  0  0  0
    3.6779   14.1510   -0.5578 H   0  0  0  0  0  0  0  0  0  0  0  0
    3.8406   13.2584   -2.1081 H   0  0  0  0  0  0  0  0  0  0  0  0
    3.2712   14.9621   -2.1081 H   0  0  0  0  0  0  0  0  0  0  0  0
    0.5646   11.8269   -1.7154 H   0  0  0  0  0  0  0  0  0  0  0  0
    2.6697   11.2804   -0.3339 H   0  0  0  0  0  0  0  0  0  0  0  0
    1.9430   10.0475   -1.4927 H   0  0  0  0  0  0  0  0  0  0  0  0
    4.5701   10.2288   -1.4817 H   0  0  0  0  0  0  0  0  0  0  0  0
    3.4143   13.0165   -4.1627 H   0  0  0  0  0  0  0  0  0  0  0  0
    2.8683   10.3291   -5.5698 H   0  0  0  0  0  0  0  0  0  0  0  0
    2.5560   11.9939   -6.2350 H   0  0  0  0  0  0  0  0  0  0  0  0
    4.6072   10.9789   -7.1751 H   0  0  0  0  0  0  0  0  0  0  0  0
    4.9340   12.4789   -6.2217 H   0  0  0  0  0  0  0  0  0  0  0  0
    6.6042   10.8421   -5.6792 H   0  0  0  0  0  0  0  0  0  0  0  0
    5.6960    8.8400   -4.5750 H   0  0  0  0  0  0  0  0  0  0  0  0
    6.3697   12.8396   -2.6741 H   0  0  0  0  0  0  0  0  0  0  0  0
    7.2204   12.5401   -4.2277 H   0  0  0  0  0  0  0  0  0  0  0  0
    5.5868   13.2872   -4.2277 H   0  0  0  0  0  0  0  0  0  0  0  0
    6.3600   10.3680   -1.9214 H   0  0  0  0  0  0  0  0  0  0  0  0
    6.2859    9.1579   -3.2468 H   0  0  0  0  0  0  0  0  0  0  0  0
    7.5716   10.4123   -3.2468 H   0  0  0  0  0  0  0  0  0  0  0  0
    0.5474   10.1779   -3.1057 H   0  0  0  0  0  0  0  0  0  0  0  0
   -0.0133   10.9911   -4.6060 H   0  0  0  0  0  0  0  0  0  0  0  0
    1.5294   10.0709   -4.6060 H   0  0  0  0  0  0  0  0  0  0  0  0
    1.2692   13.3205   -5.2931 H   0  0  0  0  0  0  0  0  0  0  0  0
   -0.1867   12.9506   -4.2077 H   0  0  0  0  0  0  0  0  0  0  0  0
    2.0214   14.9674   -3.7160 H   0  0  0  0  0  0  0  0  0  0  0  0
    0.2663   15.2680   -4.0279 H   0  0  0  0  0  0  0  0  0  0  0  0
   -1.0250   13.9188   -0.8487 H   0  0  0  0  0  0  0  0  0  0  0  0
   -1.4494   14.7263   -2.3961 H   0  0  0  0  0  0  0  0  0  0  0  0
   -0.9053   13.0144   -2.3961 H   0  0  0  0  0  0  0  0  0  0  0  0
  1  2  1  0
  2  3  1  0
  3  4  1  0
  4  5  1  0
  5  6  1  0
  6  7  1  0
  7  8  1  0
  7  9  1  0
  2 10  1  0
 10 11  1  0
 11 12  1  0
 12 13  1  0
 13 14  1  1
 13 15  1  0
 15 16  1  0
 16 17  1  0
 17 18  2  0
 18 19  1  0
 19 20  1  0
 20 21  1  0
 21 22  1  0
 22 23  1  0
 22 24  1  0
 24 25  1  0
 24 26  1  0
 19 27  1  0
 27 28  1  6
 27 29  1  0
 29 30  1  0
 30 31  1  0
 31 32  1  6
  7  5  1  0
 31 10  1  0
 31 13  1  0
 27 15  1  0
 24 18  1  0
  1 33  1  0
  1 34  1  0
  1 35  1  0
  2 36  1  6
  3 37  1  0
  3 38  1  0
  4 39  1  0
  4 40  1  0
  5 41  1  1
  8 42  1  0
  8 43  1  0
  8 44  1  0
  9 45  1  0
  9 46  1  0
  9 47  1  0
 10 48  1  6
 11 49  1  0
 11 50  1  0
 12 51  1  0
 12 52  1  0
 14 53  1  0
 14 54  1  0
 14 55  1  0
 15 56  1  1
 16 57  1  0
 16 58  1  0
 17 59  1  0
 19 60  1  6
 20 61  1  0
 20 62  1  0
 21 63  1  0
 21 64  1  0
 22 65  1  6
 23 66  1  0
 25 67  1  0
 25 68  1  0
 25 69  1  0
 26 70  1  0
 26 71  1  0
 26 72  1  0
 28 73  1  0
 28 74  1  0
 28 75  1  0
 29 76  1  0
 29 77  1  0
 30 78  1  0
 30 79  1  0
 32 80  1  0
 32 81  1  0
 32 82  1  0
M  END
>  <meeko>  (8) 
{"is_sidechain": [false], "intermolecular_energy": 2.731, "internal_energy": -0.839}

$$$$
EPH_relaxed_0001_pdb2pqr_Repair_162_r2_0001_out
     RDKit          3D

 82 86  0  0  0  0  0  0  0  0999 V2000
    2.8350   11.2090   -5.2680 C   0  0  0  0  0  0  0  0  0  0  0  0
    1.7780   10.9920   -4.1810 C   0  0  2  0  0  0  0  0  0  0  0  0
    0.6130   10.1100   -4.6720 C   0  0  0  0  0  0  0  0  0  0  0  0
   -0.4370    9.8220   -3.5950 C   0  0  0  0  0  0  0  0  0  0  0  0
    0.1350    9.0230   -2.4630 C   0  0  2  0  0  0  0  0  0  0  0  0
   -0.6740    7.9170   -2.0410 O   0  0  0  0  0  0  0  0  0  0  0  0
   -0.4860    8.9680   -1.0800 C   0  0  0  0  0  0  0  0  0  0  0  0
   -1.7350    9.7260   -0.7550 C   0  0  0  0  0  0  0  0  0  0  0  0
    0.3790    8.5790    0.0780 C   0  0  0  0  0  0  0  0  0  0  0  0
    1.2470   12.3360   -3.6980 C   0  0  1  0  0  0  0  0  0  0  0  0
   -0.2960   12.3420   -3.5290 C   0  0  0  0  0  0  0  0  0  0  0  0
   -0.6090   13.2530   -2.3140 C   0  0  0  0  0  0  0  0  0  0  0  0
    0.7170   13.9970   -2.0320 C   0  0  1  0  0  0  0  0  0  0  0  0
    0.7460   15.1690   -3.0630 C   0  0  0  0  0  0  0  0  0  0  0  0
    0.9250   14.5100   -0.5700 C   0  0  2  0  0  0  0  0  0  0  0  0
   -0.0990   15.5550   -0.0930 C   0  0  0  0  0  0  0  0  0  0  0  0
    0.2770   16.9770   -0.3450 C   0  0  0  0  0  0  0  0  0  0  0  0
    1.5080   17.4150   -0.6700 C   0  0  0  0  0  0  0  0  0  0  0  0
    2.7000   16.4510   -0.7170 C   0  0  1  0  0  0  0  0  0  0  0  0
    3.9070   17.0830    0.0240 C   0  0  0  0  0  0  0  0  0  0  0  0
    4.2580   18.4700   -0.5070 C   0  0  0  0  0  0  0  0  0  0  0  0
    3.0650   19.4160   -0.3890 C   0  0  2  0  0  0  0  0  0  0  0  0
    2.7940   19.6460    0.9970 O   0  0  0  0  0  0  0  0  0  0  0  0
    1.7860   18.8790   -1.0900 C   0  0  0  0  0  0  0  0  0  0  0  0
    1.9800   18.9160   -2.6260 C   0  0  0  0  0  0  0  0  0  0  0  0
    0.6230   19.8590   -0.7770 C   0  0  0  0  0  0  0  0  0  0  0  0
    2.4060   14.9620   -0.2450 C   0  0  1  0  0  0  0  0  0  0  0  0
    2.5780   14.8500    1.3000 C   0  0  0  0  0  0  0  0  0  0  0  0
    3.4780   14.0000   -0.8820 C   0  0  0  0  0  0  0  0  0  0  0  0
    3.1600   13.4320   -2.2780 C   0  0  0  0  0  0  0  0  0  0  0  0
    1.7460   12.8450   -2.3220 C   0  0  2  0  0  0  0  0  0  0  0  0
    1.6930   11.6490   -1.3110 C   0  0  0  0  0  0  0  0  0  0  0  0
    3.8090   11.4090   -4.7976 H   0  0  0  0  0  0  0  0  0  0  0  0
    2.9082   10.3071   -5.8935 H   0  0  0  0  0  0  0  0  0  0  0  0
    2.5469   12.0667   -5.8935 H   0  0  0  0  0  0  0  0  0  0  0  0
    2.2633   10.4629   -3.3476 H   0  0  0  0  0  0  0  0  0  0  0  0
    0.1189   10.6224   -5.5106 H   0  0  0  0  0  0  0  0  0  0  0  0
    1.0446    9.1423   -4.9673 H   0  0  0  0  0  0  0  0  0  0  0  0
   -0.8156   10.7770   -3.2018 H   0  0  0  0  0  0  0  0  0  0  0  0
   -1.2470    9.2359   -4.0537 H   0  0  0  0  0  0  0  0  0  0  0  0
    1.1600    9.2307   -2.8040 H   0  0  0  0  0  0  0  0  0  0  0  0
   -1.8485    9.7949    0.3370 H   0  0  0  0  0  0  0  0  0  0  0  0
   -1.6713   10.7379   -1.1816 H   0  0  0  0  0  0  0  0  0  0  0  0
   -2.6032    9.2023   -1.1816 H   0  0  0  0  0  0  0  0  0  0  0  0
   -0.1409    8.8128    1.0188 H   0  0  0  0  0  0  0  0  0  0  0  0
    0.5884    7.5000    0.0331 H   0  0  0  0  0  0  0  0  0  0  0  0
    1.3251    9.1383    0.0331 H   0  0  0  0  0  0  0  0  0  0  0  0
    1.6288   12.9847   -4.5002 H   0  0  0  0  0  0  0  0  0  0  0  0
   -0.7748   12.7413   -4.4352 H   0  0  0  0  0  0  0  0  0  0  0  0
   -0.6799   11.3237   -3.3686 H   0  0  0  0  0  0  0  0  0  0  0  0
   -1.4097   13.9661   -2.5595 H   0  0  0  0  0  0  0  0  0  0  0  0
   -0.9593   12.6803   -1.4426 H   0  0  0  0  0  0  0  0  0  0  0  0
    0.7698   16.1289   -2.5264 H   0  0  0  0  0  0  0  0  0  0  0  0
    1.6422   15.0797   -3.6945 H   0  0  0  0  0  0  0  0  0  0  0  0
   -0.1535   15.1241   -3.6945 H   0  0  0  0  0  0  0  0  0  0  0  0
    0.7297   13.6063    0.0260 H   0  0  0  0  0  0  0  0  0  0  0  0
   -1.0506   15.3585   -0.6087 H   0  0  0  0  0  0  0  0  0  0  0  0
   -0.1593   15.4452    0.9998 H   0  0  0  0  0  0  0  0  0  0  0  0
   -0.5190   17.7312   -0.2579 H   0  0  0  0  0  0  0  0  0  0  0  0
    2.9431   16.3198   -1.7817 H   0  0  0  0  0  0  0  0  0  0  0  0
    3.6604   17.1665    1.0927 H   0  0  0  0  0  0  0  0  0  0  0  0
    4.7782   16.4319   -0.1405 H   0  0  0  0  0  0  0  0  0  0  0  0
    5.0988   18.8762    0.0745 H   0  0  0  0  0  0  0  0  0  0  0  0
    4.5327   18.3811   -1.5684 H   0  0  0  0  0  0  0  0  0  0  0  0
    3.3338   20.3516   -0.9013 H   0  0  0  0  0  0  0  0  0  0  0  0
    3.1290   18.8800    1.4930 H   0  0  0  0  0  0  0  0  0  0  0  0
    3.0363   19.1175   -2.8574 H   0  0  0  0  0  0  0  0  0  0  0  0
    1.6890   17.9462   -3.0558 H   0  0  0  0  0  0  0  0  0  0  0  0
    1.3525   19.7106   -3.0558 H   0  0  0  0  0  0  0  0  0  0  0  0
    0.5082   19.9557    0.3127 H   0  0  0  0  0  0  0  0  0  0  0  0
    0.8472   20.8446   -1.2110 H   0  0  0  0  0  0  0  0  0  0  0  0
   -0.3103   19.4710   -1.2110 H   0  0  0  0  0  0  0  0  0  0  0  0
    1.7570   15.3846    1.8000 H   0  0  0  0  0  0  0  0  0  0  0  0
    2.5591   13.7905    1.5952 H   0  0  0  0  0  0  0  0  0  0  0  0
    3.5393   15.2958    1.5952 H   0  0  0  0  0  0  0  0  0  0  0  0
    4.4229   14.5582   -0.9573 H   0  0  0  0  0  0  0  0  0  0  0  0
    3.5109   13.1250   -0.2162 H   0  0  0  0  0  0  0  0  0  0  0  0
    3.2378   14.2392   -3.0212 H   0  0  0  0  0  0  0  0  0  0  0  0
    3.8795   12.6309   -2.5029 H   0  0  0  0  0  0  0  0  0  0  0  0
    1.7102   12.0376   -0.2821 H   0  0  0  0  0  0  0  0  0  0  0  0
    0.7685   11.0747   -1.4706 H   0  0  0  0  0  0  0  0  0  0  0  0
    2.5631   10.9951   -1.4706 H   0  0  0  0  0  0  0  0  0  0  0  0
  1  2  1  0
  2  3  1  0
  3  4  1  0
  4  5  1  0
  5  6  1  0
  6  7  1  0
  7  8  1  0
  7  9  1  0
  2 10  1  0
 10 11  1  0
 11 12  1  0
 12 13  1  0
 13 14  1  6
 13 15  1  0
 15 16  1  0
 16 17  1  0
 17 18  2  0
 18 19  1  0
 19 20  1  0
 20 21  1  0
 21 22  1  0
 22 23  1  0
 22 24  1  0
 24 25  1  0
 24 26  1  0
 19 27  1  0
 27 28  1  1
 27 29  1  0
 29 30  1  0
 30 31  1  0
 31 32  1  1
  7  5  1  0
 31 10  1  0
 31 13  1  0
 27 15  1  0
 24 18  1  0
  1 33  1  0
  1 34  1  0
  1 35  1  0
  2 36  1  1
  3 37  1  0
  3 38  1  0
  4 39  1  0
  4 40  1  0
  5 41  1  1
  8 42  1  0
  8 43  1  0
  8 44  1  0
  9 45  1  0
  9 46  1  0
  9 47  1  0
 10 48  1  6
 11 49  1  0
 11 50  1  0
 12 51  1  0
 12 52  1  0
 14 53  1  0
 14 54  1  0
 14 55  1  0
 15 56  1  1
 16 57  1  0
 16 58  1  0
 17 59  1  0
 19 60  1  6
 20 61  1  0
 20 62  1  0
 21 63  1  0
 21 64  1  0
 22 65  1  6
 23 66  1  0
 25 67  1  0
 25 68  1  0
 25 69  1  0
 26 70  1  0
 26 71  1  0
 26 72  1  0
 28 73  1  0
 28 74  1  0
 28 75  1  0
 29 76  1  0
 29 77  1  0
 30 78  1  0
 30 79  1  0
 32 80  1  0
 32 81  1  0
 32 82  1  0
M  END
>  <meeko>  (9) 
{"is_sidechain": [false], "intermolecular_energy": 2.731, "internal_energy": -0.839}

$$$$
EPH_relaxed_0001_pdb2pqr_Repair_162_r2_0001_out
     RDKit          3D

 82 86  0  0  0  0  0  0  0  0999 V2000
   -0.9440   16.3970   -5.8930 C   0  0  0  0  0  0  0  0  0  0  0  0
    0.1620   15.7050   -6.6950 C   0  0  2  0  0  0  0  0  0  0  0  0
   -0.2270   15.5130   -8.1740 C   0  0  0  0  0  0  0  0  0  0  0  0
    0.4250   16.5250   -9.1190 C   0  0  0  0  0  0  0  0  0  0  0  0
    1.8310   16.1360   -9.4650 C   0  0  2  0  0  0  0  0  0  0  0  0
    2.3200   16.6890  -10.6930 O   0  0  0  0  0  0  0  0  0  0  0  0
    2.1880   15.2590  -10.6500 C   0  0  0  0  0  0  0  0  0  0  0  0
    1.1360   14.7170  -11.5650 C   0  0  0  0  0  0  0  0  0  0  0  0
    3.4970   14.5330  -10.6340 C   0  0  0  0  0  0  0  0  0  0  0  0
    0.4960   14.3580   -6.0640 C   0  0  1  0  0  0  0  0  0  0  0  0
    1.7230   13.6760   -6.7260 C   0  0  0  0  0  0  0  0  0  0  0  0
    2.4760   12.9210   -5.6000 C   0  0  0  0  0  0  0  0  0  0  0  0
    1.4900   12.9150   -4.4080 C   0  0  1  0  0  0  0  0  0  0  0  0
    0.5050   11.7420   -4.7090 C   0  0  0  0  0  0  0  0  0  0  0  0
    2.1270   12.7840   -2.9860 C   0  0  2  0  0  0  0  0  0  0  0  0
    2.8940   11.4740   -2.7330 C   0  0  0  0  0  0  0  0  0  0  0  0
    2.0810   10.3580   -2.1640 C   0  0  0  0  0  0  0  0  0  0  0  0
    0.8640   10.4850   -1.6040 C   0  0  0  0  0  0  0  0  0  0  0  0
    0.2240   11.8660   -1.4120 C   0  0  1  0  0  0  0  0  0  0  0  0
   -0.3550   11.9730    0.0230 C   0  0  0  0  0  0  0  0  0  0  0  0
   -1.3150   10.8350    0.3540 C   0  0  0  0  0  0  0  0  0  0  0  0
   -0.6260    9.4810    0.2080 C   0  0  2  0  0  0  0  0  0  0  0  0
    0.3870    9.3680    1.2130 O   0  0  0  0  0  0  0  0  0  0  0  0
    0.0050    9.2620   -1.1960 C   0  0  0  0  0  0  0  0  0  0  0  0
   -1.1170    9.0830   -2.2490 C   0  0  0  0  0  0  0  0  0  0  0  0
    0.7880    7.9220   -1.1650 C   0  0  0  0  0  0  0  0  0  0  0  0
    1.1330   13.1110   -1.7990 C   0  0  1  0  0  0  0  0  0  0  0  0
    2.0160   13.5230   -0.5810 C   0  0  0  0  0  0  0  0  0  0  0  0
    0.2080   14.3450   -2.1150 C   0  0  0  0  0  0  0  0  0  0  0  0
   -0.2910   14.4850   -3.5660 C   0  0  0  0  0  0  0  0  0  0  0  0
    0.8660   14.3500   -4.5600 C   0  0  2  0  0  0  0  0  0  0  0  0
    1.8630   15.5290   -4.2960 C   0  0  0  0  0  0  0  0  0  0  0  0
   -0.7484   16.2746   -4.8175 H   0  0  0  0  0  0  0  0  0  0  0  0
   -0.9626   17.4681   -6.1427 H   0  0  0  0  0  0  0  0  0  0  0  0
   -1.9154   15.9453   -6.1427 H   0  0  0  0  0  0  0  0  0  0  0  0
    1.0475   16.3570   -6.6692 H   0  0  0  0  0  0  0  0  0  0  0  0
    0.0769   14.5024   -8.4844 H   0  0  0  0  0  0  0  0  0  0  0  0
   -1.3144   15.6644   -8.2422 H   0  0  0  0  0  0  0  0  0  0  0  0
   -0.1671   16.5813  -10.0443 H   0  0  0  0  0  0  0  0  0  0  0  0
    0.4547   17.4995   -8.6096 H   0  0  0  0  0  0  0  0  0  0  0  0
    2.1041   16.0852   -8.4007 H   0  0  0  0  0  0  0  0  0  0  0  0
    0.3142   14.2936  -10.9688 H   0  0  0  0  0  0  0  0  0  0  0  0
    0.7487   15.5278  -12.1995 H   0  0  0  0  0  0  0  0  0  0  0  0
    1.5714   13.9310  -12.1995 H   0  0  0  0  0  0  0  0  0  0  0  0
    3.8079   14.3605   -9.5930 H   0  0  0  0  0  0  0  0  0  0  0  0
    3.3869   13.5670  -11.1486 H   0  0  0  0  0  0  0  0  0  0  0  0
    4.2581   15.1379  -11.1486 H   0  0  0  0  0  0  0  0  0  0  0  0
   -0.4616   13.8392   -6.2183 H   0  0  0  0  0  0  0  0  0  0  0  0
    1.3913   12.9686   -7.5003 H   0  0  0  0  0  0  0  0  0  0  0  0
    2.3753   14.4187   -7.2086 H   0  0  0  0  0  0  0  0  0  0  0  0
    2.7135   11.8935   -5.9128 H   0  0  0  0  0  0  0  0  0  0  0  0
    3.4344   13.3977   -5.3465 H   0  0  0  0  0  0  0  0  0  0  0  0
    0.1450   11.3133   -3.7621 H   0  0  0  0  0  0  0  0  0  0  0  0
   -0.3499   12.1206   -5.2885 H   0  0  0  0  0  0  0  0  0  0  0  0
    1.0257   10.9655   -5.2885 H   0  0  0  0  0  0  0  0  0  0  0  0
    2.8879   13.5784   -2.9933 H   0  0  0  0  0  0  0  0  0  0  0  0
    3.3127   11.1348   -3.6920 H   0  0  0  0  0  0  0  0  0  0  0  0
    3.6577   11.7099   -1.9773 H   0  0  0  0  0  0  0  0  0  0  0  0
    2.5132    9.3474   -2.2062 H   0  0  0  0  0  0  0  0  0  0  0  0
   -0.5908   11.9293   -2.1483 H   0  0  0  0  0  0  0  0  0  0  0  0
    0.4777   11.9518    0.7415 H   0  0  0  0  0  0  0  0  0  0  0  0
   -0.9202   12.9146    0.0851 H   0  0  0  0  0  0  0  0  0  0  0  0
   -1.6666   10.9503    1.3899 H   0  0  0  0  0  0  0  0  0  0  0  0
   -2.1624   10.8753   -0.3462 H   0  0  0  0  0  0  0  0  0  0  0  0
   -1.3959    8.7050    0.3304 H   0  0  0  0  0  0  0  0  0  0  0  0
    0.0860    8.7080    1.8600 H   0  0  0  0  0  0  0  0  0  0  0  0
   -2.0787    8.9296   -1.7376 H   0  0  0  0  0  0  0  0  0  0  0  0
   -1.1760    9.9831   -2.8786 H   0  0  0  0  0  0  0  0  0  0  0  0
   -0.8930    8.2092   -2.8786 H   0  0  0  0  0  0  0  0  0  0  0  0
    0.9625    7.6234   -0.1208 H   0  0  0  0  0  0  0  0  0  0  0  0
    0.2027    7.1434   -1.6761 H   0  0  0  0  0  0  0  0  0  0  0  0
    1.7536    8.0497   -1.6761 H   0  0  0  0  0  0  0  0  0  0  0  0
    1.4897   13.2774    0.3532 H   0  0  0  0  0  0  0  0  0  0  0  0
    2.9703   12.9772   -0.6186 H   0  0  0  0  0  0  0  0  0  0  0  0
    2.2108   14.6050   -0.6186 H   0  0  0  0  0  0  0  0  0  0  0  0
   -0.6761   14.2736   -1.4644 H   0  0  0  0  0  0  0  0  0  0  0  0
    0.8382   15.2295   -1.9405 H   0  0  0  0  0  0  0  0  0  0  0  0
   -1.0329   13.6985   -3.7687 H   0  0  0  0  0  0  0  0  0  0  0  0
   -0.7422   15.4809   -3.6867 H   0  0  0  0  0  0  0  0  0  0  0  0
    1.9835   15.6715   -3.2119 H   0  0  0  0  0  0  0  0  0  0  0  0
    2.8386   15.2918   -4.7453 H   0  0  0  0  0  0  0  0  0  0  0  0
    1.4670   16.4517   -4.7453 H   0  0  0  0  0  0  0  0  0  0  0  0
  1  2  1  0
  2  3  1  0
  3  4  1  0
  4  5  1  0
  5  6  1  0
  6  7  1  0
  7  8  1  0
  7  9  1  0
  2 10  1  0
 10 11  1  0
 11 12  1  0
 12 13  1  0
 13 14  1  6
 13 15  1  0
 15 16  1  0
 16 17  1  0
 17 18  2  0
 18 19  1  0
 19 20  1  0
 20 21  1  0
 21 22  1  0
 22 23  1  0
 22 24  1  0
 24 25  1  0
 24 26  1  0
 19 27  1  0
 27 28  1  1
 27 29  1  0
 29 30  1  0
 30 31  1  0
 31 32  1  6
  7  5  1  0
 31 10  1  0
 31 13  1  0
 27 15  1  0
 24 18  1  0
  1 33  1  0
  1 34  1  0
  1 35  1  0
  2 36  1  6
  3 37  1  0
  3 38  1  0
  4 39  1  0
  4 40  1  0
  5 41  1  1
  8 42  1  0
  8 43  1  0
  8 44  1  0
  9 45  1  0
  9 46  1  0
  9 47  1  0
 10 48  1  1
 11 49  1  0
 11 50  1  0
 12 51  1  0
 12 52  1  0
 14 53  1  0
 14 54  1  0
 14 55  1  0
 15 56  1  6
 16 57  1  0
 16 58  1  0
 17 59  1  0
 19 60  1  6
 20 61  1  0
 20 62  1  0
 21 63  1  0
 21 64  1  0
 22 65  1  1
 23 66  1  0
 25 67  1  0
 25 68  1  0
 25 69  1  0
 26 70  1  0
 26 71  1  0
 26 72  1  0
 28 73  1  0
 28 74  1  0
 28 75  1  0
 29 76  1  0
 29 77  1  0
 30 78  1  0
 30 79  1  0
 32 80  1  0
 32 81  1  0
 32 82  1  0
M  END
>  <meeko>  (10) 
{"is_sidechain": [false], "intermolecular_energy": 2.731, "internal_energy": -0.839}

$$$$
EPH_relaxed_0001_pdb2pqr_Repair_162_r2_0001_out
     RDKit          3D

 82 86  0  0  0  0  0  0  0  0999 V2000
   -4.0490    7.3500   -3.5510 C   0  0  0  0  0  0  0  0  0  0  0  0
   -3.7110    7.2710   -2.0590 C   0  0  2  0  0  0  0  0  0  0  0  0
   -4.9240    6.8410   -1.2110 C   0  0  0  0  0  0  0  0  0  0  0  0
   -6.1870    6.5730   -2.0340 C   0  0  0  0  0  0  0  0  0  0  0  0
   -7.3850    6.3600   -1.1590 C   0  0  2  0  0  0  0  0  0  0  0  0
   -8.4460    5.6130   -1.7680 O   0  0  0  0  0  0  0  0  0  0  0  0
   -8.7430    6.9790   -1.4340 C   0  0  0  0  0  0  0  0  0  0  0  0
   -8.9730    7.8590   -2.6220 C   0  0  0  0  0  0  0  0  0  0  0  0
   -9.7060    7.1260   -0.2970 C   0  0  0  0  0  0  0  0  0  0  0  0
   -3.1870    8.6180   -1.5730 C   0  0  1  0  0  0  0  0  0  0  0  0
   -3.8520    9.0750   -0.2480 C   0  0  0  0  0  0  0  0  0  0  0  0
   -2.7660    9.8290    0.5610 C   0  0  0  0  0  0  0  0  0  0  0  0
   -1.6220   10.0700   -0.4510 C   0  0  1  0  0  0  0  0  0  0  0  0
   -2.0660   11.3250   -1.2660 C   0  0  0  0  0  0  0  0  0  0  0  0
   -0.1910   10.2500    0.1520 C   0  0  2  0  0  0  0  0  0  0  0  0
   -0.0210   11.4690    1.0750 C   0  0  0  0  0  0  0  0  0  0  0  0
    0.4130   12.7260    0.3970 C   0  0  0  0  0  0  0  0  0  0  0  0
    0.9290   12.8080   -0.8440 C   0  0  0  0  0  0  0  0  0  0  0  0
    1.2140   11.5420   -1.6630 C   0  0  1  0  0  0  0  0  0  0  0  0
    2.6270   11.6410   -2.2950 C   0  0  0  0  0  0  0  0  0  0  0  0
    2.8150   12.9180   -3.1090 C   0  0  0  0  0  0  0  0  0  0  0  0
    2.5810   14.1550   -2.2460 C   0  0  2  0  0  0  0  0  0  0  0  0
    3.6150   14.2310   -1.2590 O   0  0  0  0  0  0  0  0  0  0  0  0
    1.1920   14.1610   -1.5490 C   0  0  0  0  0  0  0  0  0  0  0  0
    0.0810   14.3830   -2.6050 C   0  0  0  0  0  0  0  0  0  0  0  0
    1.1400   15.3890   -0.6000 C   0  0  0  0  0  0  0  0  0  0  0  0
    0.9770   10.1620   -0.9120 C   0  0  1  0  0  0  0  0  0  0  0  0
    2.2620    9.7550   -0.1290 C   0  0  0  0  0  0  0  0  0  0  0  0
    0.7300    9.0310   -1.9790 C   0  0  0  0  0  0  0  0  0  0  0  0
   -0.7230    8.8230   -2.4470 C   0  0  0  0  0  0  0  0  0  0  0  0
   -1.6750    8.7180   -1.2520 C   0  0  2  0  0  0  0  0  0  0  0  0
   -1.2670    7.4510   -0.4250 C   0  0  0  0  0  0  0  0  0  0  0  0
   -5.1135    7.5988   -3.6731 H   0  0  0  0  0  0  0  0  0  0  0  0
   -3.4337    8.1285   -4.0256 H   0  0  0  0  0  0  0  0  0  0  0  0
   -3.8425    6.3794   -4.0256 H   0  0  0  0  0  0  0  0  0  0  0  0
   -2.9333    6.5028   -1.9360 H   0  0  0  0  0  0  0  0  0  0  0  0
   -4.6604    5.9203   -0.6698 H   0  0  0  0  0  0  0  0  0  0  0  0
   -5.1538    7.6758   -0.5325 H   0  0  0  0  0  0  0  0  0  0  0  0
   -6.3741    7.4355   -2.6906 H   0  0  0  0  0  0  0  0  0  0  0  0
   -6.0250    5.6574   -2.6217 H   0  0  0  0  0  0  0  0  0  0  0  0
   -6.7529    6.3382   -0.2590 H   0  0  0  0  0  0  0  0  0  0  0  0
   -9.2376    8.8713   -2.2827 H   0  0  0  0  0  0  0  0  0  0  0  0
   -8.0563    7.9034   -3.2284 H   0  0  0  0  0  0  0  0  0  0  0  0
   -9.7942    7.4492   -3.2284 H   0  0  0  0  0  0  0  0  0  0  0  0
   -9.1633    7.0432    0.6562 H   0  0  0  0  0  0  0  0  0  0  0  0
  -10.1956    8.1093   -0.3559 H   0  0  0  0  0  0  0  0  0  0  0  0
  -10.4666    6.3336   -0.3559 H   0  0  0  0  0  0  0  0  0  0  0  0
   -3.4277    9.2370   -2.4499 H   0  0  0  0  0  0  0  0  0  0  0  0
   -4.6989    9.7441   -0.4604 H   0  0  0  0  0  0  0  0  0  0  0  0
   -4.2387    8.2141    0.3171 H   0  0  0  0  0  0  0  0  0  0  0  0
   -3.1574   10.7848    0.9394 H   0  0  0  0  0  0  0  0  0  0  0  0
   -2.4313    9.2600    1.4409 H   0  0  0  0  0  0  0  0  0  0  0  0
   -2.3509   12.1303   -0.5730 H   0  0  0  0  0  0  0  0  0  0  0  0
   -1.2333   11.6641   -1.8997 H   0  0  0  0  0  0  0  0  0  0  0  0
   -2.9267   11.0650   -1.8997 H   0  0  0  0  0  0  0  0  0  0  0  0
   -0.0962    9.3678    0.8022 H   0  0  0  0  0  0  0  0  0  0  0  0
   -0.9872   11.6626    1.5639 H   0  0  0  0  0  0  0  0  0  0  0  0
    0.7840   11.2087    1.7780 H   0  0  0  0  0  0  0  0  0  0  0  0
    0.3018   13.6651    0.9589 H   0  0  0  0  0  0  0  0  0  0  0  0
    0.4517   11.5151   -2.4555 H   0  0  0  0  0  0  0  0  0  0  0  0
    3.3758   11.6227   -1.4894 H   0  0  0  0  0  0  0  0  0  0  0  0
    2.7477   10.7879   -2.9789 H   0  0  0  0  0  0  0  0  0  0  0  0
    3.8408   12.9444   -3.5053 H   0  0  0  0  0  0  0  0  0  0  0  0
    2.0845   12.9206   -3.9314 H   0  0  0  0  0  0  0  0  0  0  0  0
    2.6021   15.0306   -2.9114 H   0  0  0  0  0  0  0  0  0  0  0  0
    4.3470   13.6630   -1.5550 H   0  0  0  0  0  0  0  0  0  0  0  0
   -0.8754   14.5741   -2.0964 H   0  0  0  0  0  0  0  0  0  0  0  0
    0.3407   15.2470   -3.2343 H   0  0  0  0  0  0  0  0  0  0  0  0
   -0.0113   13.4855   -3.2343 H   0  0  0  0  0  0  0  0  0  0  0  0
    1.1545   15.0457    0.4450 H   0  0  0  0  0  0  0  0  0  0  0  0
    2.0117   16.0336   -0.7864 H   0  0  0  0  0  0  0  0  0  0  0  0
    0.2170   15.9576   -0.7864 H   0  0  0  0  0  0  0  0  0  0  0  0
    2.0676    9.8166    0.9519 H   0  0  0  0  0  0  0  0  0  0  0  0
    2.5414    8.7244   -0.3932 H   0  0  0  0  0  0  0  0  0  0  0  0
    3.0838   10.4368   -0.3932 H   0  0  0  0  0  0  0  0  0  0  0  0
    1.3340    9.2727   -2.8660 H   0  0  0  0  0  0  0  0  0  0  0  0
    1.0068    8.0937   -1.4743 H   0  0  0  0  0  0  0  0  0  0  0  0
   -1.0247    9.6755   -3.0734 H   0  0  0  0  0  0  0  0  0  0  0  0
   -0.7757    7.8857   -3.0203 H   0  0  0  0  0  0  0  0  0  0  0  0
   -1.3393    7.6755    0.6494 H   0  0  0  0  0  0  0  0  0  0  0  0
   -1.9426    6.6188   -0.6720 H   0  0  0  0  0  0  0  0  0  0  0  0
   -0.2327    7.1694   -0.6720 H   0  0  0  0  0  0  0  0  0  0  0  0
  1  2  1  0
  2  3  1  0
  3  4  1  0
  4  5  1  0
  5  6  1  0
  6  7  1  0
  7  8  1  0
  7  9  1  0
  2 10  1  0
 10 11  1  0
 11 12  1  0
 12 13  1  0
 13 14  1  6
 13 15  1  0
 15 16  1  0
 16 17  1  0
 17 18  2  0
 18 19  1  0
 19 20  1  0
 20 21  1  0
 21 22  1  0
 22 23  1  0
 22 24  1  0
 24 25  1  0
 24 26  1  0
 19 27  1  0
 27 28  1  1
 27 29  1  0
 29 30  1  0
 30 31  1  0
 31 32  1  1
  7  5  1  0
 31 10  1  0
 31 13  1  0
 27 15  1  0
 24 18  1  0
  1 33  1  0
  1 34  1  0
  1 35  1  0
  2 36  1  6
  3 37  1  0
  3 38  1  0
  4 39  1  0
  4 40  1  0
  5 41  1  1
  8 42  1  0
  8 43  1  0
  8 44  1  0
  9 45  1  0
  9 46  1  0
  9 47  1  0
 10 48  1  6
 11 49  1  0
 11 50  1  0
 12 51  1  0
 12 52  1  0
 14 53  1  0
 14 54  1  0
 14 55  1  0
 15 56  1  1
 16 57  1  0
 16 58  1  0
 17 59  1  0
 19 60  1  6
 20 61  1  0
 20 62  1  0
 21 63  1  0
 21 64  1  0
 22 65  1  6
 23 66  1  0
 25 67  1  0
 25 68  1  0
 25 69  1  0
 26 70  1  0
 26 71  1  0
 26 72  1  0
 28 73  1  0
 28 74  1  0
 28 75  1  0
 29 76  1  0
 29 77  1  0
 30 78  1  0
 30 79  1  0
 32 80  1  0
 32 81  1  0
 32 82  1  0
M  END
>  <meeko>  (11) 
{"is_sidechain": [false], "intermolecular_energy": 2.731, "internal_energy": -0.839}

$$$$
EPH_relaxed_0001_pdb2pqr_Repair_162_r2_0001_out
     RDKit          3D

 82 86  0  0  0  0  0  0  0  0999 V2000
    0.0850    9.3020   -2.2610 C   0  0  0  0  0  0  0  0  0  0  0  0
    1.1030   10.3350   -2.7520 C   0  0  2  0  0  0  0  0  0  0  0  0
    2.5190    9.7390   -2.8800 C   0  0  0  0  0  0  0  0  0  0  0  0
    3.4200   10.4980   -3.8580 C   0  0  0  0  0  0  0  0  0  0  0  0
    4.8130   10.6490   -3.3260 C   0  0  2  0  0  0  0  0  0  0  0  0
    5.4420   11.8980   -3.6390 O   0  0  0  0  0  0  0  0  0  0  0  0
    6.0430   10.7250   -4.2110 C   0  0  0  0  0  0  0  0  0  0  0  0
    5.9370   10.6510   -5.7020 C   0  0  0  0  0  0  0  0  0  0  0  0
    7.3740   10.3800   -3.6180 C   0  0  0  0  0  0  0  0  0  0  0  0
    1.1250   11.5320   -1.8080 C   0  0  1  0  0  0  0  0  0  0  0  0
    2.1930   11.3930   -0.6920 C   0  0  0  0  0  0  0  0  0  0  0  0
    2.7390   12.8180   -0.4150 C   0  0  0  0  0  0  0  0  0  0  0  0
    1.7450   13.7620   -1.1320 C   0  0  1  0  0  0  0  0  0  0  0  0
    0.5400   13.8960   -0.1500 C   0  0  0  0  0  0  0  0  0  0  0  0
    2.3030   15.1600   -1.5560 C   0  0  2  0  0  0  0  0  0  0  0  0
    2.7660   16.0570   -0.3950 C   0  0  0  0  0  0  0  0  0  0  0  0
    1.7190   16.9590    0.1710 C   0  0  0  0  0  0  0  0  0  0  0  0
    0.5430   17.2540   -0.4140 C   0  0  0  0  0  0  0  0  0  0  0  0
    0.2090   16.7360   -1.8190 C   0  0  1  0  0  0  0  0  0  0  0  0
   -0.3690   17.8940   -2.6740 C   0  0  0  0  0  0  0  0  0  0  0  0
   -1.5590   18.5770   -2.0060 C   0  0  0  0  0  0  0  0  0  0  0  0
   -1.1720   19.1300   -0.6370 C   0  0  2  0  0  0  0  0  0  0  0  0
   -0.2330   20.1940   -0.8180 O   0  0  0  0  0  0  0  0  0  0  0  0
   -0.5680   18.0550    0.3100 C   0  0  0  0  0  0  0  0  0  0  0  0
   -1.6750   17.0650    0.7470 C   0  0  0  0  0  0  0  0  0  0  0  0
   -0.0910   18.7710    1.6020 C   0  0  0  0  0  0  0  0  0  0  0  0
    1.3730   15.9510   -2.5630 C   0  0  1  0  0  0  0  0  0  0  0  0
    2.2920   16.9560   -3.3220 C   0  0  0  0  0  0  0  0  0  0  0  0
    0.7420   15.0120   -3.6580 C   0  0  0  0  0  0  0  0  0  0  0  0
    0.3200   13.6010   -3.2040 C   0  0  0  0  0  0  0  0  0  0  0  0
    1.4470   12.9170   -2.4240 C   0  0  2  0  0  0  0  0  0  0  0  0
    2.6660   12.7480   -3.3930 C   0  0  0  0  0  0  0  0  0  0  0  0
    0.0747    9.2915   -1.1611 H   0  0  0  0  0  0  0  0  0  0  0  0
   -0.9152    9.5666   -2.6346 H   0  0  0  0  0  0  0  0  0  0  0  0
    0.3642    8.3058   -2.6346 H   0  0  0  0  0  0  0  0  0  0  0  0
    0.7890   10.6584   -3.7554 H   0  0  0  0  0  0  0  0  0  0  0  0
    2.9932    9.7542   -1.8876 H   0  0  0  0  0  0  0  0  0  0  0  0
    2.4039    8.7186   -3.2745 H   0  0  0  0  0  0  0  0  0  0  0  0
    3.4594    9.9456   -4.8084 H   0  0  0  0  0  0  0  0  0  0  0  0
    2.9978   11.5033   -4.0033 H   0  0  0  0  0  0  0  0  0  0  0  0
    4.5708   10.0280   -2.4510 H   0  0  0  0  0  0  0  0  0  0  0  0
    5.0638   10.0414   -5.9777 H   0  0  0  0  0  0  0  0  0  0  0  0
    5.8205   11.6650   -6.1121 H   0  0  0  0  0  0  0  0  0  0  0  0
    6.8487   10.1921   -6.1121 H   0  0  0  0  0  0  0  0  0  0  0  0
    7.3023   10.3986   -2.5205 H   0  0  0  0  0  0  0  0  0  0  0  0
    7.6733    9.3746   -3.9489 H   0  0  0  0  0  0  0  0  0  0  0  0
    8.1241   11.1134   -3.9489 H   0  0  0  0  0  0  0  0  0  0  0  0
    0.0828   11.5095   -1.4569 H   0  0  0  0  0  0  0  0  0  0  0  0
    1.7370   10.9784    0.2191 H   0  0  0  0  0  0  0  0  0  0  0  0
    3.0011   10.7137   -1.0011 H   0  0  0  0  0  0  0  0  0  0  0  0
    2.7590   13.0231    0.6655 H   0  0  0  0  0  0  0  0  0  0  0  0
    3.7706   12.9470   -0.7744 H   0  0  0  0  0  0  0  0  0  0  0  0
    0.9056   13.8553    0.8867 H   0  0  0  0  0  0  0  0  0  0  0  0
    0.0317   14.8562   -0.3222 H   0  0  0  0  0  0  0  0  0  0  0  0
   -0.1668   13.0709   -0.3222 H   0  0  0  0  0  0  0  0  0  0  0  0
    3.2157   14.8921   -2.1084 H   0  0  0  0  0  0  0  0  0  0  0  0
    3.1273   15.4057    0.4145 H   0  0  0  0  0  0  0  0  0  0  0  0
    3.5429   16.7157   -0.8105 H   0  0  0  0  0  0  0  0  0  0  0  0
    1.9260   17.4210    1.1476 H   0  0  0  0  0  0  0  0  0  0  0  0
   -0.5545   15.9560   -1.6820 H   0  0  0  0  0  0  0  0  0  0  0  0
    0.4216   18.6416   -2.8356 H   0  0  0  0  0  0  0  0  0  0  0  0
   -0.7204   17.4646   -3.6238 H   0  0  0  0  0  0  0  0  0  0  0  0
   -1.9042   19.4040   -2.6439 H   0  0  0  0  0  0  0  0  0  0  0  0
   -2.3599   17.8351   -1.8716 H   0  0  0  0  0  0  0  0  0  0  0  0
   -2.0926   19.4906   -0.1550 H   0  0  0  0  0  0  0  0  0  0  0  0
   -0.5870   20.7860   -1.5030 H   0  0  0  0  0  0  0  0  0  0  0  0
   -1.7190   17.0257    1.8454 H   0  0  0  0  0  0  0  0  0  0  0  0
   -2.6450   17.4024    0.3530 H   0  0  0  0  0  0  0  0  0  0  0  0
   -1.4476   16.0635    0.3530 H   0  0  0  0  0  0  0  0  0  0  0  0
   -0.4569   18.2217    2.4820 H   0  0  0  0  0  0  0  0  0  0  0  0
    1.0084   18.8014    1.6198 H   0  0  0  0  0  0  0  0  0  0  0  0
   -0.4865   19.7973    1.6198 H   0  0  0  0  0  0  0  0  0  0  0  0
    2.8488   17.5650   -2.5946 H   0  0  0  0  0  0  0  0  0  0  0  0
    3.0006   16.4000   -3.9535 H   0  0  0  0  0  0  0  0  0  0  0  0
    1.6750   17.6122   -3.9535 H   0  0  0  0  0  0  0  0  0  0  0  0
   -0.1524   15.5158   -4.0531 H   0  0  0  0  0  0  0  0  0  0  0  0
    1.5429   14.8499   -4.3944 H   0  0  0  0  0  0  0  0  0  0  0  0
   -0.5674   13.6808   -2.5589 H   0  0  0  0  0  0  0  0  0  0  0  0
    0.0942   12.9981   -4.0959 H   0  0  0  0  0  0  0  0  0  0  0  0
    3.5869   12.6203   -2.8050 H   0  0  0  0  0  0  0  0  0  0  0  0
    2.5103   11.8629   -4.0272 H   0  0  0  0  0  0  0  0  0  0  0  0
    2.7569   13.6421   -4.0272 H   0  0  0  0  0  0  0  0  0  0  0  0
  1  2  1  0
  2  3  1  0
  3  4  1  0
  4  5  1  0
  5  6  1  0
  6  7  1  0
  7  8  1  0
  7  9  1  0
  2 10  1  0
 10 11  1  0
 11 12  1  0
 12 13  1  0
 13 14  1  1
 13 15  1  0
 15 16  1  0
 16 17  1  0
 17 18  2  0
 18 19  1  0
 19 20  1  0
 20 21  1  0
 21 22  1  0
 22 23  1  0
 22 24  1  0
 24 25  1  0
 24 26  1  0
 19 27  1  0
 27 28  1  6
 27 29  1  0
 29 30  1  0
 30 31  1  0
 31 32  1  6
  7  5  1  0
 31 10  1  0
 31 13  1  0
 27 15  1  0
 24 18  1  0
  1 33  1  0
  1 34  1  0
  1 35  1  0
  2 36  1  6
  3 37  1  0
  3 38  1  0
  4 39  1  0
  4 40  1  0
  5 41  1  1
  8 42  1  0
  8 43  1  0
  8 44  1  0
  9 45  1  0
  9 46  1  0
  9 47  1  0
 10 48  1  1
 11 49  1  0
 11 50  1  0
 12 51  1  0
 12 52  1  0
 14 53  1  0
 14 54  1  0
 14 55  1  0
 15 56  1  6
 16 57  1  0
 16 58  1  0
 17 59  1  0
 19 60  1  1
 20 61  1  0
 20 62  1  0
 21 63  1  0
 21 64  1  0
 22 65  1  1
 23 66  1  0
 25 67  1  0
 25 68  1  0
 25 69  1  0
 26 70  1  0
 26 71  1  0
 26 72  1  0
 28 73  1  0
 28 74  1  0
 28 75  1  0
 29 76  1  0
 29 77  1  0
 30 78  1  0
 30 79  1  0
 32 80  1  0
 32 81  1  0
 32 82  1  0
M  END
>  <meeko>  (12) 
{"is_sidechain": [false], "intermolecular_energy": 2.731, "internal_energy": -0.839}

$$$$
EPH_relaxed_0001_pdb2pqr_Repair_162_r2_0001_out
     RDKit          3D

 82 86  0  0  0  0  0  0  0  0999 V2000
   -2.2250    7.8440   -2.0890 C   0  0  0  0  0  0  0  0  0  0  0  0
   -2.2270    8.4850   -0.6980 C   0  0  2  0  0  0  0  0  0  0  0  0
   -3.6310    8.4920   -0.0630 C   0  0  0  0  0  0  0  0  0  0  0  0
   -4.7700    8.5290   -1.0860 C   0  0  0  0  0  0  0  0  0  0  0  0
   -5.5340    7.2410   -1.1120 C   0  0  2  0  0  0  0  0  0  0  0  0
   -5.7110    6.6760   -2.4180 O   0  0  0  0  0  0  0  0  0  0  0  0
   -6.9080    7.0960   -1.7410 C   0  0  0  0  0  0  0  0  0  0  0  0
   -7.5970    8.2570   -2.3870 C   0  0  0  0  0  0  0  0  0  0  0  0
   -7.7800    5.9620   -1.3010 C   0  0  0  0  0  0  0  0  0  0  0  0
   -1.6860    9.9070   -0.7810 C   0  0  1  0  0  0  0  0  0  0  0  0
   -1.2170   10.4500    0.5960 C   0  0  0  0  0  0  0  0  0  0  0  0
    0.0100   11.3580    0.3250 C   0  0  0  0  0  0  0  0  0  0  0  0
    0.0040   11.5740   -1.2070 C   0  0  1  0  0  0  0  0  0  0  0  0
   -1.0440   12.7050   -1.4490 C   0  0  0  0  0  0  0  0  0  0  0  0
    1.3830   11.9160   -1.8610 C   0  0  2  0  0  0  0  0  0  0  0  0
    2.0220   13.2320   -1.3870 C   0  0  0  0  0  0  0  0  0  0  0  0
    1.6610   14.4410   -2.1860 C   0  0  0  0  0  0  0  0  0  0  0  0
    1.0880   14.4310   -3.4040 C   0  0  0  0  0  0  0  0  0  0  0  0
    0.8340   13.1110   -4.1440 C   0  0  1  0  0  0  0  0  0  0  0  0
    1.3060   13.2450   -5.6160 C   0  0  0  0  0  0  0  0  0  0  0  0
    0.6780   14.4410   -6.3250 C   0  0  0  0  0  0  0  0  0  0  0  0
    1.0010   15.7410   -5.5910 C   0  0  2  0  0  0  0  0  0  0  0  0
    2.4070   15.9900   -5.6930 O   0  0  0  0  0  0  0  0  0  0  0  0
    0.5810   15.7200   -4.0950 C   0  0  0  0  0  0  0  0  0  0  0  0
   -0.9640   15.7530   -3.9880 C   0  0  0  0  0  0  0  0  0  0  0  0
    1.0890   17.0320   -3.4380 C   0  0  0  0  0  0  0  0  0  0  0  0
    1.3960   11.8020   -3.4400 C   0  0  1  0  0  0  0  0  0  0  0  0
    2.8810   11.5690   -3.8560 C   0  0  0  0  0  0  0  0  0  0  0  0
    0.5890   10.5530   -3.9570 C   0  0  0  0  0  0  0  0  0  0  0  0
   -0.7010   10.1960   -3.1940 C   0  0  0  0  0  0  0  0  0  0  0  0
   -0.4500   10.1470   -1.6840 C   0  0  2  0  0  0  0  0  0  0  0  0
    0.5850    9.0030   -1.4080 C   0  0  0  0  0  0  0  0  0  0  0  0
   -2.2216    6.7487   -1.9880 H   0  0  0  0  0  0  0  0  0  0  0  0
   -3.1241    8.1587   -2.6390 H   0  0  0  0  0  0  0  0  0  0  0  0
   -1.3278    8.1643   -2.6390 H   0  0  0  0  0  0  0  0  0  0  0  0
   -1.5767    7.8763   -0.0526 H   0  0  0  0  0  0  0  0  0  0  0  0
   -3.7410    7.5827    0.5462 H   0  0  0  0  0  0  0  0  0  0  0  0
   -3.7078    9.4111    0.5364 H   0  0  0  0  0  0  0  0  0  0  0  0
   -5.4580    9.3463   -0.8239 H   0  0  0  0  0  0  0  0  0  0  0  0
   -4.3309    8.6872   -2.0821 H   0  0  0  0  0  0  0  0  0  0  0  0
   -5.1420    6.9609   -0.1231 H   0  0  0  0  0  0  0  0  0  0  0  0
   -7.9943    8.9264   -1.6098 H   0  0  0  0  0  0  0  0  0  0  0  0
   -6.8792    8.8073   -3.0130 H   0  0  0  0  0  0  0  0  0  0  0  0
   -8.4239    7.8906   -3.0130 H   0  0  0  0  0  0  0  0  0  0  0  0
   -7.8078    5.9259   -0.2019 H   0  0  0  0  0  0  0  0  0  0  0  0
   -8.7985    6.1108   -1.6888 H   0  0  0  0  0  0  0  0  0  0  0  0
   -7.3746    5.0158   -1.6888 H   0  0  0  0  0  0  0  0  0  0  0  0
   -2.5658   10.4134   -1.2046 H   0  0  0  0  0  0  0  0  0  0  0  0
   -2.0222   11.0323    1.0677 H   0  0  0  0  0  0  0  0  0  0  0  0
   -0.9559    9.6265    1.2769 H   0  0  0  0  0  0  0  0  0  0  0  0
   -0.0927   12.3175    0.8530 H   0  0  0  0  0  0  0  0  0  0  0  0
    0.9489   10.9077    0.6794 H   0  0  0  0  0  0  0  0  0  0  0  0
   -1.3995   13.0886   -0.4813 H   0  0  0  0  0  0  0  0  0  0  0  0
   -0.5768   13.5222   -2.0181 H   0  0  0  0  0  0  0  0  0  0  0  0
   -1.8944   12.3013   -2.0181 H   0  0  0  0  0  0  0  0  0  0  0  0
    2.0320   11.1152   -1.4769 H   0  0  0  0  0  0  0  0  0  0  0  0
    1.7093   13.4063   -0.3469 H   0  0  0  0  0  0  0  0  0  0  0  0
    3.1080   13.1026   -1.5050 H   0  0  0  0  0  0  0  0  0  0  0  0
    1.8820   15.4227   -1.7416 H   0  0  0  0  0  0  0  0  0  0  0  0
   -0.2535   12.9488   -4.1131 H   0  0  0  0  0  0  0  0  0  0  0  0
    2.3996   13.3633   -5.6263 H   0  0  0  0  0  0  0  0  0  0  0  0
    0.9921   12.3368   -6.1514 H   0  0  0  0  0  0  0  0  0  0  0  0
    1.0716   14.4991   -7.3505 H   0  0  0  0  0  0  0  0  0  0  0  0
   -0.4138   14.3075   -6.3394 H   0  0  0  0  0  0  0  0  0  0  0  0
    0.4195   16.5435   -6.0684 H   0  0  0  0  0  0  0  0  0  0  0  0
    2.6180   16.7300   -5.0980 H   0  0  0  0  0  0  0  0  0  0  0  0
   -1.2581   15.7593   -2.9281 H   0  0  0  0  0  0  0  0  0  0  0  0
   -1.3463   16.6595   -4.4800 H   0  0  0  0  0  0  0  0  0  0  0  0
   -1.3847   14.8636   -4.4800 H   0  0  0  0  0  0  0  0  0  0  0  0
    1.0505   16.9326   -2.3432 H   0  0  0  0  0  0  0  0  0  0  0  0
    2.1257   17.2221   -3.7527 H   0  0  0  0  0  0  0  0  0  0  0  0
    0.4506   17.8707   -3.7527 H   0  0  0  0  0  0  0  0  0  0  0  0
    3.5034   11.4713   -2.9543 H   0  0  0  0  0  0  0  0  0  0  0  0
    2.9543   10.6484   -4.4536 H   0  0  0  0  0  0  0  0  0  0  0  0
    3.2327   12.4230   -4.4536 H   0  0  0  0  0  0  0  0  0  0  0  0
    0.3139   10.7448   -5.0046 H   0  0  0  0  0  0  0  0  0  0  0  0
    1.2597    9.6942   -3.8067 H   0  0  0  0  0  0  0  0  0  0  0  0
   -1.4669   10.9563   -3.4068 H   0  0  0  0  0  0  0  0  0  0  0  0
   -1.0407    9.2035   -3.5251 H   0  0  0  0  0  0  0  0  0  0  0  0
    0.7046    8.8708   -0.3225 H   0  0  0  0  0  0  0  0  0  0  0  0
    0.2224    8.0651   -1.8539 H   0  0  0  0  0  0  0  0  0  0  0  0
    1.5544    9.2702   -1.8539 H   0  0  0  0  0  0  0  0  0  0  0  0
  1  2  1  0
  2  3  1  0
  3  4  1  0
  4  5  1  0
  5  6  1  0
  6  7  1  0
  7  8  1  0
  7  9  1  0
  2 10  1  0
 10 11  1  0
 11 12  1  0
 12 13  1  0
 13 14  1  1
 13 15  1  0
 15 16  1  0
 16 17  1  0
 17 18  2  0
 18 19  1  0
 19 20  1  0
 20 21  1  0
 21 22  1  0
 22 23  1  0
 22 24  1  0
 24 25  1  0
 24 26  1  0
 19 27  1  0
 27 28  1  6
 27 29  1  0
 29 30  1  0
 30 31  1  0
 31 32  1  6
  7  5  1  0
 31 10  1  0
 31 13  1  0
 27 15  1  0
 24 18  1  0
  1 33  1  0
  1 34  1  0
  1 35  1  0
  2 36  1  1
  3 37  1  0
  3 38  1  0
  4 39  1  0
  4 40  1  0
  5 41  1  1
  8 42  1  0
  8 43  1  0
  8 44  1  0
  9 45  1  0
  9 46  1  0
  9 47  1  0
 10 48  1  6
 11 49  1  0
 11 50  1  0
 12 51  1  0
 12 52  1  0
 14 53  1  0
 14 54  1  0
 14 55  1  0
 15 56  1  1
 16 57  1  0
 16 58  1  0
 17 59  1  0
 19 60  1  6
 20 61  1  0
 20 62  1  0
 21 63  1  0
 21 64  1  0
 22 65  1  6
 23 66  1  0
 25 67  1  0
 25 68  1  0
 25 69  1  0
 26 70  1  0
 26 71  1  0
 26 72  1  0
 28 73  1  0
 28 74  1  0
 28 75  1  0
 29 76  1  0
 29 77  1  0
 30 78  1  0
 30 79  1  0
 32 80  1  0
 32 81  1  0
 32 82  1  0
M  END
>  <meeko>  (13) 
{"is_sidechain": [false], "intermolecular_energy": 2.731, "internal_energy": -0.839}

$$$$
EPH_relaxed_0001_pdb2pqr_Repair_162_r2_0001_out
     RDKit          3D

 82 86  0  0  0  0  0  0  0  0999 V2000
    0.7570   10.6850   -4.2610 C   0  0  0  0  0  0  0  0  0  0  0  0
    0.6020   10.2320   -2.8070 C   0  0  2  0  0  0  0  0  0  0  0  0
   -0.7370    9.5070   -2.5640 C   0  0  0  0  0  0  0  0  0  0  0  0
   -0.6710    8.4420   -1.4660 C   0  0  0  0  0  0  0  0  0  0  0  0
   -2.0090    8.2180   -0.8290 C   0  0  2  0  0  0  0  0  0  0  0  0
   -3.1300    8.5590   -1.6560 O   0  0  0  0  0  0  0  0  0  0  0  0
   -2.9600    9.3420   -0.4630 C   0  0  0  0  0  0  0  0  0  0  0  0
   -2.6110   10.7740   -0.7200 C   0  0  0  0  0  0  0  0  0  0  0  0
   -4.0030    9.0850    0.5800 C   0  0  0  0  0  0  0  0  0  0  0  0
    0.7220   11.4310   -1.8740 C   0  0  1  0  0  0  0  0  0  0  0  0
    1.7540   11.2020   -0.7370 C   0  0  0  0  0  0  0  0  0  0  0  0
    2.4280   12.5700   -0.4630 C   0  0  0  0  0  0  0  0  0  0  0  0
    1.5420   13.5980   -1.2050 C   0  0  1  0  0  0  0  0  0  0  0  0
    0.3390   13.8570   -0.2460 C   0  0  0  0  0  0  0  0  0  0  0  0
    2.2390   14.9310   -1.6310 C   0  0  2  0  0  0  0  0  0  0  0  0
    2.7660   15.7920   -0.4690 C   0  0  0  0  0  0  0  0  0  0  0  0
    1.8010   16.7950    0.0690 C   0  0  0  0  0  0  0  0  0  0  0  0
    0.6690   17.1970   -0.5380 C   0  0  0  0  0  0  0  0  0  0  0  0
    0.3110   16.6990   -1.9450 C   0  0  1  0  0  0  0  0  0  0  0  0
   -0.1390   17.8980   -2.8200 C   0  0  0  0  0  0  0  0  0  0  0  0
   -1.2690   18.6990   -2.1790 C   0  0  0  0  0  0  0  0  0  0  0  0
   -0.8540   19.2260   -0.8080 C   0  0  2  0  0  0  0  0  0  0  0  0
    0.1860   20.1930   -0.9810 O   0  0  0  0  0  0  0  0  0  0  0  0
   -0.3720   18.1080    0.1580 C   0  0  0  0  0  0  0  0  0  0  0  0
   -1.5770   17.2320    0.5840 C   0  0  0  0  0  0  0  0  0  0  0  0
    0.1500   18.7870    1.4530 C   0  0  0  0  0  0  0  0  0  0  0  0
    1.4070   15.7970   -2.6610 C   0  0  1  0  0  0  0  0  0  0  0  0
    2.4310   16.7020   -3.4120 C   0  0  0  0  0  0  0  0  0  0  0  0
    0.7070   14.9120   -3.7590 C   0  0  0  0  0  0  0  0  0  0  0  0
    0.1440   13.5530   -3.3010 C   0  0  0  0  0  0  0  0  0  0  0  0
    1.1860   12.7720   -2.4950 C   0  0  2  0  0  0  0  0  0  0  0  0
    2.4000   12.4770   -3.4410 C   0  0  0  0  0  0  0  0  0  0  0  0
    1.1130   11.7255   -4.2849 H   0  0  0  0  0  0  0  0  0  0  0  0
    1.4845   10.0367   -4.7715 H   0  0  0  0  0  0  0  0  0  0  0  0
   -0.2151   10.6183   -4.7715 H   0  0  0  0  0  0  0  0  0  0  0  0
    1.4085    9.5144   -2.5961 H   0  0  0  0  0  0  0  0  0  0  0  0
   -1.4899   10.2557   -2.2765 H   0  0  0  0  0  0  0  0  0  0  0  0
   -0.9956    8.9885   -3.4990 H   0  0  0  0  0  0  0  0  0  0  0  0
   -0.3236    7.4962   -1.9073 H   0  0  0  0  0  0  0  0  0  0  0  0
    0.0238    8.7935   -0.6891 H   0  0  0  0  0  0  0  0  0  0  0  0
   -1.6191    7.3651   -0.2541 H   0  0  0  0  0  0  0  0  0  0  0  0
   -2.4833   11.2980    0.2387 H   0  0  0  0  0  0  0  0  0  0  0  0
   -1.6740   10.8257   -1.2938 H   0  0  0  0  0  0  0  0  0  0  0  0
   -3.4192   11.2511   -1.2938 H   0  0  0  0  0  0  0  0  0  0  0  0
   -3.5570    9.1949    1.5795 H   0  0  0  0  0  0  0  0  0  0  0  0
   -4.8240    9.8077    0.4634 H   0  0  0  0  0  0  0  0  0  0  0  0
   -4.3943    8.0636    0.4634 H   0  0  0  0  0  0  0  0  0  0  0  0
   -0.3237   11.5119   -1.5425 H   0  0  0  0  0  0  0  0  0  0  0  0
    1.2453   10.8420    0.1694 H   0  0  0  0  0  0  0  0  0  0  0  0
    2.4986   10.4456   -1.0258 H   0  0  0  0  0  0  0  0  0  0  0  0
    2.4493   12.7831    0.6160 H   0  0  0  0  0  0  0  0  0  0  0  0
    3.4729   12.5960   -0.8058 H   0  0  0  0  0  0  0  0  0  0  0  0
    0.6795   13.7837    0.7974 H   0  0  0  0  0  0  0  0  0  0  0  0
   -0.0663   14.8630   -0.4296 H   0  0  0  0  0  0  0  0  0  0  0  0
   -0.4444   13.1069   -0.4296 H   0  0  0  0  0  0  0  0  0  0  0  0
    3.1310   14.5708   -2.1645 H   0  0  0  0  0  0  0  0  0  0  0  0
    3.0490   15.1177    0.3527 H   0  0  0  0  0  0  0  0  0  0  0  0
    3.6098   16.3688   -0.8756 H   0  0  0  0  0  0  0  0  0  0  0  0
    2.0349   17.2444    1.0454 H   0  0  0  0  0  0  0  0  0  0  0  0
   -0.5262   15.9973   -1.8155 H   0  0  0  0  0  0  0  0  0  0  0  0
    0.7222   18.5647   -2.9744 H   0  0  0  0  0  0  0  0  0  0  0  0
   -0.5143   17.4943   -3.7719 H   0  0  0  0  0  0  0  0  0  0  0  0
   -1.5221   19.5489   -2.8299 H   0  0  0  0  0  0  0  0  0  0  0  0
   -2.1397   18.0388   -2.0527 H   0  0  0  0  0  0  0  0  0  0  0  0
   -1.7439   19.6780   -0.3456 H   0  0  0  0  0  0  0  0  0  0  0  0
   -0.1550   20.8890   -1.5680 H   0  0  0  0  0  0  0  0  0  0  0  0
   -1.6315   17.1924    1.6819 H   0  0  0  0  0  0  0  0  0  0  0  0
   -2.5056   17.6673    0.1862 H   0  0  0  0  0  0  0  0  0  0  0  0
   -1.4493   16.2144    0.1862 H   0  0  0  0  0  0  0  0  0  0  0  0
   -0.2539   18.2616    2.3309 H   0  0  0  0  0  0  0  0  0  0  0  0
    1.2489   18.7428    1.4728 H   0  0  0  0  0  0  0  0  0  0  0  0
   -0.1752   19.8377    1.4728 H   0  0  0  0  0  0  0  0  0  0  0  0
    3.0460   17.2456   -2.6797 H   0  0  0  0  0  0  0  0  0  0  0  0
    3.0794   16.0764   -4.0430 H   0  0  0  0  0  0  0  0  0  0  0  0
    1.8899   17.4224   -4.0430 H   0  0  0  0  0  0  0  0  0  0  0  0
   -0.1282   15.4954   -4.1739 H   0  0  0  0  0  0  0  0  0  0  0  0
    1.5008   14.6664   -4.4798 H   0  0  0  0  0  0  0  0  0  0  0  0
   -0.7427   13.7240   -2.6729 H   0  0  0  0  0  0  0  0  0  0  0  0
   -0.1230   12.9655   -4.1919 H   0  0  0  0  0  0  0  0  0  0  0  0
    3.2924   12.2601   -2.8355 H   0  0  0  0  0  0  0  0  0  0  0  0
    2.1678   11.6091   -4.0757 H   0  0  0  0  0  0  0  0  0  0  0  0
    2.5920   13.3546   -4.0757 H   0  0  0  0  0  0  0  0  0  0  0  0
  1  2  1  0
  2  3  1  0
  3  4  1  0
  4  5  1  0
  5  6  1  0
  6  7  1  0
  7  8  1  0
  7  9  1  0
  2 10  1  0
 10 11  1  0
 11 12  1  0
 12 13  1  0
 13 14  1  1
 13 15  1  0
 15 16  1  0
 16 17  1  0
 17 18  2  0
 18 19  1  0
 19 20  1  0
 20 21  1  0
 21 22  1  0
 22 23  1  0
 22 24  1  0
 24 25  1  0
 24 26  1  0
 19 27  1  0
 27 28  1  6
 27 29  1  0
 29 30  1  0
 30 31  1  0
 31 32  1  6
  7  5  1  0
 31 10  1  0
 31 13  1  0
 27 15  1  0
 24 18  1  0
  1 33  1  0
  1 34  1  0
  1 35  1  0
  2 36  1  1
  3 37  1  0
  3 38  1  0
  4 39  1  0
  4 40  1  0
  5 41  1  1
  8 42  1  0
  8 43  1  0
  8 44  1  0
  9 45  1  0
  9 46  1  0
  9 47  1  0
 10 48  1  1
 11 49  1  0
 11 50  1  0
 12 51  1  0
 12 52  1  0
 14 53  1  0
 14 54  1  0
 14 55  1  0
 15 56  1  6
 16 57  1  0
 16 58  1  0
 17 59  1  0
 19 60  1  1
 20 61  1  0
 20 62  1  0
 21 63  1  0
 21 64  1  0
 22 65  1  1
 23 66  1  0
 25 67  1  0
 25 68  1  0
 25 69  1  0
 26 70  1  0
 26 71  1  0
 26 72  1  0
 28 73  1  0
 28 74  1  0
 28 75  1  0
 29 76  1  0
 29 77  1  0
 30 78  1  0
 30 79  1  0
 32 80  1  0
 32 81  1  0
 32 82  1  0
M  END
>  <meeko>  (14) 
{"is_sidechain": [false], "intermolecular_energy": 2.731, "internal_energy": -0.839}

$$$$
EPH_relaxed_0001_pdb2pqr_Repair_162_r2_0001_out
     RDKit          3D

 82 86  0  0  0  0  0  0  0  0999 V2000
    0.9460   14.9240   -2.6770 C   0  0  0  0  0  0  0  0  0  0  0  0
    1.1970   14.2420   -4.0250 C   0  0  2  0  0  0  0  0  0  0  0  0
    0.4780   14.9620   -5.1830 C   0  0  0  0  0  0  0  0  0  0  0  0
    1.0250   14.6010   -6.5670 C   0  0  0  0  0  0  0  0  0  0  0  0
    0.8170   15.7100   -7.5520 C   0  0  2  0  0  0  0  0  0  0  0  0
    0.3990   15.2830   -8.8560 O   0  0  0  0  0  0  0  0  0  0  0  0
    1.6870   15.9150   -8.7780 C   0  0  0  0  0  0  0  0  0  0  0  0
    2.8320   15.0010   -9.0840 C   0  0  0  0  0  0  0  0  0  0  0  0
    1.7310   17.2730   -9.4060 C   0  0  0  0  0  0  0  0  0  0  0  0
    0.7530   12.7850   -3.9610 C   0  0  1  0  0  0  0  0  0  0  0  0
    1.8890   11.7970   -4.3370 C   0  0  0  0  0  0  0  0  0  0  0  0
    1.6960   10.5370   -3.4550 C   0  0  0  0  0  0  0  0  0  0  0  0
    0.2830   10.6980   -2.8490 C   0  0  1  0  0  0  0  0  0  0  0  0
   -0.6920   10.2170   -3.9690 C   0  0  0  0  0  0  0  0  0  0  0  0
    0.0210    9.9550   -1.4980 C   0  0  2  0  0  0  0  0  0  0  0  0
    0.1320    8.4210   -1.5650 C   0  0  0  0  0  0  0  0  0  0  0  0
   -1.1370    7.7030   -1.8830 C   0  0  0  0  0  0  0  0  0  0  0  0
   -2.3720    8.2350   -1.8260 C   0  0  0  0  0  0  0  0  0  0  0  0
   -2.5910    9.6650   -1.3150 C   0  0  1  0  0  0  0  0  0  0  0  0
   -3.7710    9.6790   -0.3070 C   0  0  0  0  0  0  0  0  0  0  0  0
   -5.0420    9.0650   -0.8860 C   0  0  0  0  0  0  0  0  0  0  0  0
   -4.7990    7.6250   -1.3290 C   0  0  2  0  0  0  0  0  0  0  0  0
   -4.5370    6.8250   -0.1720 O   0  0  0  0  0  0  0  0  0  0  0  0
   -3.6260    7.4840   -2.3390 C   0  0  0  0  0  0  0  0  0  0  0  0
   -4.0360    8.0970   -3.7010 C   0  0  0  0  0  0  0  0  0  0  0  0
   -3.3950    5.9700   -2.5950 C   0  0  0  0  0  0  0  0  0  0  0  0
   -1.3010   10.4060   -0.7560 C   0  0  1  0  0  0  0  0  0  0  0  0
   -1.1040   10.0640    0.7530 C   0  0  0  0  0  0  0  0  0  0  0  0
   -1.5290   11.9620   -0.8320 C   0  0  0  0  0  0  0  0  0  0  0  0
   -1.1400   12.6570   -2.1510 C   0  0  0  0  0  0  0  0  0  0  0  0
    0.2690   12.2490   -2.5900 C   0  0  2  0  0  0  0  0  0  0  0  0
    1.2740   12.7390   -1.4930 C   0  0  0  0  0  0  0  0  0  0  0  0
    1.2012   14.2306   -1.8621 H   0  0  0  0  0  0  0  0  0  0  0  0
    1.5711   15.8259   -2.6003 H   0  0  0  0  0  0  0  0  0  0  0  0
   -0.1146   15.2054   -2.6003 H   0  0  0  0  0  0  0  0  0  0  0  0
    2.2774   14.2928   -4.2255 H   0  0  0  0  0  0  0  0  0  0  0  0
   -0.5882   14.6934   -5.1502 H   0  0  0  0  0  0  0  0  0  0  0  0
    0.6439   16.0404   -5.0432 H   0  0  0  0  0  0  0  0  0  0  0  0
    2.1026   14.3971   -6.4822 H   0  0  0  0  0  0  0  0  0  0  0  0
    0.4831   13.7149   -6.9292 H   0  0  0  0  0  0  0  0  0  0  0  0
    0.4987   16.3930   -6.7506 H   0  0  0  0  0  0  0  0  0  0  0  0
    3.2782   14.6448   -8.1438 H   0  0  0  0  0  0  0  0  0  0  0  0
    2.4693   14.1413   -9.6666 H   0  0  0  0  0  0  0  0  0  0  0  0
    3.5900   15.5452   -9.6666 H   0  0  0  0  0  0  0  0  0  0  0  0
    1.7559   18.0405   -8.6184 H   0  0  0  0  0  0  0  0  0  0  0  0
    2.6324   17.3591  -10.0305 H   0  0  0  0  0  0  0  0  0  0  0  0
    0.8371   17.4173  -10.0305 H   0  0  0  0  0  0  0  0  0  0  0  0
   -0.0870   12.8167   -4.6705 H   0  0  0  0  0  0  0  0  0  0  0  0
    1.8205   11.5284   -5.4015 H   0  0  0  0  0  0  0  0  0  0  0  0
    2.8775   12.2492   -4.1687 H   0  0  0  0  0  0  0  0  0  0  0  0
    1.7553    9.6234   -4.0647 H   0  0  0  0  0  0  0  0  0  0  0  0
    2.4734   10.4457   -2.6822 H   0  0  0  0  0  0  0  0  0  0  0  0
   -1.5884    9.7748   -3.5097 H   0  0  0  0  0  0  0  0  0  0  0  0
   -0.9847   11.0741   -4.5933 H   0  0  0  0  0  0  0  0  0  0  0  0
   -0.1900    9.4632   -4.5933 H   0  0  0  0  0  0  0  0  0  0  0  0
    0.8653   10.2895   -0.8774 H   0  0  0  0  0  0  0  0  0  0  0  0
    0.8696    8.1672   -2.3406 H   0  0  0  0  0  0  0  0  0  0  0  0
    0.4226    8.0927   -0.5561 H   0  0  0  0  0  0  0  0  0  0  0  0
   -1.0562    6.6498   -2.1900 H   0  0  0  0  0  0  0  0  0  0  0  0
   -2.8476   10.2686   -2.1981 H   0  0  0  0  0  0  0  0  0  0  0  0
   -3.4785    9.1076    0.5863 H   0  0  0  0  0  0  0  0  0  0  0  0
   -3.9888   10.7291   -0.0623 H   0  0  0  0  0  0  0  0  0  0  0  0
   -5.8298    9.0775   -0.1184 H   0  0  0  0  0  0  0  0  0  0  0  0
   -5.3494    9.6548   -1.7621 H   0  0  0  0  0  0  0  0  0  0  0  0
   -5.7047    7.2833   -1.8514 H   0  0  0  0  0  0  0  0  0  0  0  0
   -4.9620    5.9610   -0.3090 H   0  0  0  0  0  0  0  0  0  0  0  0
   -4.6401    9.0002   -3.5296 H   0  0  0  0  0  0  0  0  0  0  0  0
   -3.1330    8.3624   -4.2703 H   0  0  0  0  0  0  0  0  0  0  0  0
   -4.6261    7.3638   -4.2703 H   0  0  0  0  0  0  0  0  0  0  0  0
   -3.3147    5.4435   -1.6326 H   0  0  0  0  0  0  0  0  0  0  0  0
   -4.2412    5.5615   -3.1669 H   0  0  0  0  0  0  0  0  0  0  0  0
   -2.4655    5.8325   -3.1669 H   0  0  0  0  0  0  0  0  0  0  0  0
   -1.5585   10.8530    1.3702 H   0  0  0  0  0  0  0  0  0  0  0  0
   -1.5855    9.1006    0.9765 H   0  0  0  0  0  0  0  0  0  0  0  0
   -0.0290    9.9972    0.9765 H   0  0  0  0  0  0  0  0  0  0  0  0
   -2.5989   12.1505   -0.6594 H   0  0  0  0  0  0  0  0  0  0  0  0
   -0.8576   12.3890   -0.0725 H   0  0  0  0  0  0  0  0  0  0  0  0
   -1.8579   12.3710   -2.9339 H   0  0  0  0  0  0  0  0  0  0  0  0
   -1.1569   13.7454   -1.9925 H   0  0  0  0  0  0  0  0  0  0  0  0
    0.8564   12.5354   -0.4959 H   0  0  0  0  0  0  0  0  0  0  0  0
    2.2293   12.2056   -1.6063 H   0  0  0  0  0  0  0  0  0  0  0  0
    1.4421   13.8202   -1.6063 H   0  0  0  0  0  0  0  0  0  0  0  0
  1  2  1  0
  2  3  1  0
  3  4  1  0
  4  5  1  0
  5  6  1  0
  6  7  1  0
  7  8  1  0
  7  9  1  0
  2 10  1  0
 10 11  1  0
 11 12  1  0
 12 13  1  0
 13 14  1  6
 13 15  1  0
 15 16  1  0
 16 17  1  0
 17 18  2  0
 18 19  1  0
 19 20  1  0
 20 21  1  0
 21 22  1  0
 22 23  1  0
 22 24  1  0
 24 25  1  0
 24 26  1  0
 19 27  1  0
 27 28  1  1
 27 29  1  0
 29 30  1  0
 30 31  1  0
 31 32  1  1
  7  5  1  0
 31 10  1  0
 31 13  1  0
 27 15  1  0
 24 18  1  0
  1 33  1  0
  1 34  1  0
  1 35  1  0
  2 36  1  6
  3 37  1  0
  3 38  1  0
  4 39  1  0
  4 40  1  0
  5 41  1  1
  8 42  1  0
  8 43  1  0
  8 44  1  0
  9 45  1  0
  9 46  1  0
  9 47  1  0
 10 48  1  6
 11 49  1  0
 11 50  1  0
 12 51  1  0
 12 52  1  0
 14 53  1  0
 14 54  1  0
 14 55  1  0
 15 56  1  1
 16 57  1  0
 16 58  1  0
 17 59  1  0
 19 60  1  6
 20 61  1  0
 20 62  1  0
 21 63  1  0
 21 64  1  0
 22 65  1  6
 23 66  1  0
 25 67  1  0
 25 68  1  0
 25 69  1  0
 26 70  1  0
 26 71  1  0
 26 72  1  0
 28 73  1  0
 28 74  1  0
 28 75  1  0
 29 76  1  0
 29 77  1  0
 30 78  1  0
 30 79  1  0
 32 80  1  0
 32 81  1  0
 32 82  1  0
M  END
>  <meeko>  (15) 
{"is_sidechain": [false], "intermolecular_energy": 2.731, "internal_energy": -0.839}

$$$$
EPH_relaxed_0001_pdb2pqr_Repair_162_r2_0001_out
     RDKit          3D

 82 86  0  0  0  0  0  0  0  0999 V2000
    0.2130   10.2080   -3.9490 C   0  0  0  0  0  0  0  0  0  0  0  0
    1.6350   10.7710   -3.8790 C   0  0  2  0  0  0  0  0  0  0  0  0
    2.3710   10.3330   -2.5970 C   0  0  0  0  0  0  0  0  0  0  0  0
    1.5580    9.3820   -1.7150 C   0  0  0  0  0  0  0  0  0  0  0  0
    1.4380    9.8940   -0.3110 C   0  0  2  0  0  0  0  0  0  0  0  0
    0.8720    8.9620    0.6200 O   0  0  0  0  0  0  0  0  0  0  0  0
    0.1100   10.1550    0.3740 C   0  0  0  0  0  0  0  0  0  0  0  0
   -1.1900    9.9120   -0.3270 C   0  0  0  0  0  0  0  0  0  0  0  0
    0.0770   11.0990    1.5350 C   0  0  0  0  0  0  0  0  0  0  0  0
    1.5970   12.2920   -3.9650 C   0  0  1  0  0  0  0  0  0  0  0  0
    0.7330   12.8020   -5.1490 C   0  0  0  0  0  0  0  0  0  0  0  0
    0.0520   14.1120   -4.6740 C   0  0  0  0  0  0  0  0  0  0  0  0
    0.7960   14.4880   -3.3710 C   0  0  1  0  0  0  0  0  0  0  0  0
    2.1060   15.1920   -3.8450 C   0  0  0  0  0  0  0  0  0  0  0  0
    0.0030   15.3700   -2.3520 C   0  0  2  0  0  0  0  0  0  0  0  0
   -0.3960   16.7630   -2.8680 C   0  0  0  0  0  0  0  0  0  0  0  0
    0.5950   17.8480   -2.6060 C   0  0  0  0  0  0  0  0  0  0  0  0
    1.6220   17.7760   -1.7390 C   0  0  0  0  0  0  0  0  0  0  0  0
    1.8090   16.5480   -0.8400 C   0  0  1  0  0  0  0  0  0  0  0  0
    2.0970   17.0090    0.6130 C   0  0  0  0  0  0  0  0  0  0  0  0
    3.2730   17.9790    0.6970 C   0  0  0  0  0  0  0  0  0  0  0  0
    3.0240   19.2140   -0.1650 C   0  0  2  0  0  0  0  0  0  0  0  0
    1.9370   19.9560    0.3960 O   0  0  0  0  0  0  0  0  0  0  0  0
    2.7130   18.8720   -1.6490 C   0  0  0  0  0  0  0  0  0  0  0  0
    3.9930   18.3420   -2.3410 C   0  0  0  0  0  0  0  0  0  0  0  0
    2.3430   20.1940   -2.3750 C   0  0  0  0  0  0  0  0  0  0  0  0
    0.6610   15.4520   -0.9160 C   0  0  1  0  0  0  0  0  0  0  0  0
   -0.4840   15.8110    0.0790 C   0  0  0  0  0  0  0  0  0  0  0  0
    1.2410   14.0660   -0.4430 C   0  0  0  0  0  0  0  0  0  0  0  0
    1.9070   13.1880   -1.5200 C   0  0  0  0  0  0  0  0  0  0  0  0
    1.0080   13.0580   -2.7530 C   0  0  2  0  0  0  0  0  0  0  0  0
   -0.3090   12.3320   -2.3110 C   0  0  0  0  0  0  0  0  0  0  0  0
   -0.1716   10.0557   -2.9298 H   0  0  0  0  0  0  0  0  0  0  0  0
   -0.4361   10.9170   -4.4838 H   0  0  0  0  0  0  0  0  0  0  0  0
    0.2251    9.2468   -4.4838 H   0  0  0  0  0  0  0  0  0  0  0  0
    2.1940   10.3647   -4.7348 H   0  0  0  0  0  0  0  0  0  0  0  0
    3.3028    9.8258   -2.8876 H   0  0  0  0  0  0  0  0  0  0  0  0
    2.5547   11.2420   -2.0054 H   0  0  0  0  0  0  0  0  0  0  0  0
    0.5502    9.2736   -2.1422 H   0  0  0  0  0  0  0  0  0  0  0  0
    2.0791    8.4138   -1.6835 H   0  0  0  0  0  0  0  0  0  0  0  0
    2.3382   10.5138   -0.4354 H   0  0  0  0  0  0  0  0  0  0  0  0
   -1.9859    9.7632    0.4176 H   0  0  0  0  0  0  0  0  0  0  0  0
   -1.4348   10.7799   -0.9569 H   0  0  0  0  0  0  0  0  0  0  0  0
   -1.1047    9.0142   -0.9569 H   0  0  0  0  0  0  0  0  0  0  0  0
    0.0970   10.5263    2.4739 H   0  0  0  0  0  0  0  0  0  0  0  0
    0.9525   11.7636    1.4922 H   0  0  0  0  0  0  0  0  0  0  0  0
   -0.8427   11.7009    1.4922 H   0  0  0  0  0  0  0  0  0  0  0  0
    2.6737   12.4990   -4.0541 H   0  0  0  0  0  0  0  0  0  0  0  0
    1.3692   13.0015   -6.0239 H   0  0  0  0  0  0  0  0  0  0  0  0
   -0.0157   12.0519   -5.4436 H   0  0  0  0  0  0  0  0  0  0  0  0
    0.1655   14.9044   -5.4285 H   0  0  0  0  0  0  0  0  0  0  0  0
   -1.0293   13.9865   -4.5157 H   0  0  0  0  0  0  0  0  0  0  0  0
    2.6911   15.5065   -2.9682 H   0  0  0  0  0  0  0  0  0  0  0  0
    2.7002   14.4917   -4.4504 H   0  0  0  0  0  0  0  0  0  0  0  0
    1.8499   16.0740   -4.4504 H   0  0  0  0  0  0  0  0  0  0  0  0
   -0.9383   14.8120   -2.2396 H   0  0  0  0  0  0  0  0  0  0  0  0
   -0.5437   16.6930   -3.9558 H   0  0  0  0  0  0  0  0  0  0  0  0
   -1.3060   17.0425   -2.3168 H   0  0  0  0  0  0  0  0  0  0  0  0
    0.4760   18.7855   -3.1690 H   0  0  0  0  0  0  0  0  0  0  0  0
    2.6800   16.0082   -1.2399 H   0  0  0  0  0  0  0  0  0  0  0  0
    1.1999   17.5072    1.0093 H   0  0  0  0  0  0  0  0  0  0  0  0
    2.3575   16.1166    1.2011 H   0  0  0  0  0  0  0  0  0  0  0  0
    3.4080   18.2913    1.7430 H   0  0  0  0  0  0  0  0  0  0  0  0
    4.1755   17.4695    0.3282 H   0  0  0  0  0  0  0  0  0  0  0  0
    3.9502   19.8074   -0.1674 H   0  0  0  0  0  0  0  0  0  0  0  0
    1.6300   20.5840   -0.2800 H   0  0  0  0  0  0  0  0  0  0  0  0
    4.7242   18.0392   -1.5771 H   0  0  0  0  0  0  0  0  0  0  0  0
    3.7384   17.4753   -2.9687 H   0  0  0  0  0  0  0  0  0  0  0  0
    4.4256   19.1350   -2.9687 H   0  0  0  0  0  0  0  0  0  0  0  0
    2.1250   20.9730   -1.6296 H   0  0  0  0  0  0  0  0  0  0  0  0
    3.1859   20.5148   -3.0048 H   0  0  0  0  0  0  0  0  0  0  0  0
    1.4561   20.0306   -3.0048 H   0  0  0  0  0  0  0  0  0  0  0  0
   -0.1217   15.6974    1.1114 H   0  0  0  0  0  0  0  0  0  0  0  0
   -0.8005   16.8515   -0.0861 H   0  0  0  0  0  0  0  0  0  0  0  0
   -1.3379   15.1375   -0.0861 H   0  0  0  0  0  0  0  0  0  0  0  0
    1.9931   14.2676    0.3340 H   0  0  0  0  0  0  0  0  0  0  0  0
    0.3683   13.4902   -0.1012 H   0  0  0  0  0  0  0  0  0  0  0  0
    2.8621   13.6455   -1.8175 H   0  0  0  0  0  0  0  0  0  0  0  0
    2.0751   12.1850   -1.1007 H   0  0  0  0  0  0  0  0  0  0  0  0
   -0.3610   12.3034   -1.2126 H   0  0  0  0  0  0  0  0  0  0  0  0
   -1.1787   12.8781   -2.7051 H   0  0  0  0  0  0  0  0  0  0  0  0
   -0.3115   11.3050   -2.7051 H   0  0  0  0  0  0  0  0  0  0  0  0
  1  2  1  0
  2  3  1  0
  3  4  1  0
  4  5  1  0
  5  6  1  0
  6  7  1  0
  7  8  1  0
  7  9  1  0
  2 10  1  0
 10 11  1  0
 11 12  1  0
 12 13  1  0
 13 14  1  6
 13 15  1  0
 15 16  1  0
 16 17  1  0
 17 18  2  0
 18 19  1  0
 19 20  1  0
 20 21  1  0
 21 22  1  0
 22 23  1  0
 22 24  1  0
 24 25  1  0
 24 26  1  0
 19 27  1  0
 27 28  1  1
 27 29  1  0
 29 30  1  0
 30 31  1  0
 31 32  1  1
  7  5  1  0
 31 10  1  0
 31 13  1  0
 27 15  1  0
 24 18  1  0
  1 33  1  0
  1 34  1  0
  1 35  1  0
  2 36  1  6
  3 37  1  0
  3 38  1  0
  4 39  1  0
  4 40  1  0
  5 41  1  1
  8 42  1  0
  8 43  1  0
  8 44  1  0
  9 45  1  0
  9 46  1  0
  9 47  1  0
 10 48  1  6
 11 49  1  0
 11 50  1  0
 12 51  1  0
 12 52  1  0
 14 53  1  0
 14 54  1  0
 14 55  1  0
 15 56  1  1
 16 57  1  0
 16 58  1  0
 17 59  1  0
 19 60  1  6
 20 61  1  0
 20 62  1  0
 21 63  1  0
 21 64  1  0
 22 65  1  6
 23 66  1  0
 25 67  1  0
 25 68  1  0
 25 69  1  0
 26 70  1  0
 26 71  1  0
 26 72  1  0
 28 73  1  0
 28 74  1  0
 28 75  1  0
 29 76  1  0
 29 77  1  0
 30 78  1  0
 30 79  1  0
 32 80  1  0
 32 81  1  0
 32 82  1  0
M  END
>  <meeko>  (16) 
{"is_sidechain": [false], "intermolecular_energy": 2.731, "internal_energy": -0.839}

$$$$
EPH_relaxed_0001_pdb2pqr_Repair_162_r2_0001_out
     RDKit          3D

 82 86  0  0  0  0  0  0  0  0999 V2000
    0.8110    8.1520   -2.5800 C   0  0  0  0  0  0  0  0  0  0  0  0
   -0.5840    8.4560   -2.0270 C   0  0  2  0  0  0  0  0  0  0  0  0
   -1.7000    7.8450   -2.8990 C   0  0  0  0  0  0  0  0  0  0  0  0
   -3.0120    7.6120   -2.1460 C   0  0  0  0  0  0  0  0  0  0  0  0
   -3.9330    6.7060   -2.9040 C   0  0  2  0  0  0  0  0  0  0  0  0
   -4.8800    7.3800   -3.7430 O   0  0  0  0  0  0  0  0  0  0  0  0
   -5.4270    6.6260   -2.6480 C   0  0  0  0  0  0  0  0  0  0  0  0
   -6.0840    7.4670   -1.5990 C   0  0  0  0  0  0  0  0  0  0  0  0
   -6.1610    5.3930   -3.0730 C   0  0  0  0  0  0  0  0  0  0  0  0
   -0.7800    9.9630   -1.9110 C   0  0  1  0  0  0  0  0  0  0  0  0
   -2.2490   10.3520   -1.5990 C   0  0  0  0  0  0  0  0  0  0  0  0
   -2.1960   11.6010   -0.6810 C   0  0  0  0  0  0  0  0  0  0  0  0
   -0.7290   12.0840   -0.7650 C   0  0  1  0  0  0  0  0  0  0  0  0
   -0.6520   12.9010   -2.0930 C   0  0  0  0  0  0  0  0  0  0  0  0
   -0.2030   12.9110    0.4530 C   0  0  2  0  0  0  0  0  0  0  0  0
   -0.9320   14.2440    0.7000 C   0  0  0  0  0  0  0  0  0  0  0  0
   -0.3490   15.4280    0.0030 C   0  0  0  0  0  0  0  0  0  0  0  0
    0.8730   15.4830   -0.5580 C   0  0  0  0  0  0  0  0  0  0  0  0
    1.8480   14.3040   -0.4370 C   0  0  1  0  0  0  0  0  0  0  0  0
    3.2520   14.8320   -0.0400 C   0  0  0  0  0  0  0  0  0  0  0  0
    3.7600   15.9140   -0.9880 C   0  0  0  0  0  0  0  0  0  0  0  0
    2.7920   17.0940   -1.0360 C   0  0  2  0  0  0  0  0  0  0  0  0
    2.7900   17.7410    0.2400 O   0  0  0  0  0  0  0  0  0  0  0  0
    1.3420   16.6830   -1.4170 C   0  0  0  0  0  0  0  0  0  0  0  0
    1.2940   16.2630   -2.9060 C   0  0  0  0  0  0  0  0  0  0  0  0
    0.4410   17.9410   -1.2910 C   0  0  0  0  0  0  0  0  0  0  0  0
    1.3680   13.0980    0.4800 C   0  0  1  0  0  0  0  0  0  0  0  0
    1.7590   13.3700    1.9640 C   0  0  0  0  0  0  0  0  0  0  0  0
    2.1330   11.7900    0.0510 C   0  0  0  0  0  0  0  0  0  0  0  0
    1.5010   10.9530   -1.0760 C   0  0  0  0  0  0  0  0  0  0  0  0
    0.0150   10.7000   -0.8040 C   0  0  2  0  0  0  0  0  0  0  0  0
   -0.0940    9.8600    0.5150 C   0  0  0  0  0  0  0  0  0  0  0  0
    1.5111    7.9994   -1.7453 H   0  0  0  0  0  0  0  0  0  0  0  0
    0.7708    7.2415   -3.1960 H   0  0  0  0  0  0  0  0  0  0  0  0
    1.1533    8.9966   -3.1960 H   0  0  0  0  0  0  0  0  0  0  0  0
   -0.6531    7.9944   -1.0309 H   0  0  0  0  0  0  0  0  0  0  0  0
   -1.8980    8.5280   -3.7383 H   0  0  0  0  0  0  0  0  0  0  0  0
   -1.3428    6.8601   -3.2342 H   0  0  0  0  0  0  0  0  0  0  0  0
   -2.7869    7.1563   -1.1705 H   0  0  0  0  0  0  0  0  0  0  0  0
   -3.5128    8.5834   -2.0214 H   0  0  0  0  0  0  0  0  0  0  0  0
   -3.1538    5.9326   -2.9717 H   0  0  0  0  0  0  0  0  0  0  0  0
   -5.7974    7.1002   -0.6024 H   0  0  0  0  0  0  0  0  0  0  0  0
   -5.7610    8.5124   -1.7118 H   0  0  0  0  0  0  0  0  0  0  0  0
   -7.1765    7.4066   -1.7118 H   0  0  0  0  0  0  0  0  0  0  0  0
   -6.4915    4.8378   -2.1827 H   0  0  0  0  0  0  0  0  0  0  0  0
   -7.0373    5.6769   -3.6743 H   0  0  0  0  0  0  0  0  0  0  0  0
   -5.4938    4.7580   -3.6743 H   0  0  0  0  0  0  0  0  0  0  0  0
   -0.4194   10.2730   -2.9029 H   0  0  0  0  0  0  0  0  0  0  0  0
   -2.7841   10.5889   -2.5304 H   0  0  0  0  0  0  0  0  0  0  0  0
   -2.7812    9.5237   -1.1084 H   0  0  0  0  0  0  0  0  0  0  0  0
   -2.8828   12.3796   -1.0444 H   0  0  0  0  0  0  0  0  0  0  0  0
   -2.5023   11.3740    0.3508 H   0  0  0  0  0  0  0  0  0  0  0  0
   -0.5511   13.9712   -1.8597 H   0  0  0  0  0  0  0  0  0  0  0  0
    0.2189   12.5694   -2.6775 H   0  0  0  0  0  0  0  0  0  0  0  0
   -1.5695   12.7380   -2.6775 H   0  0  0  0  0  0  0  0  0  0  0  0
   -0.4620   12.2659    1.3055 H   0  0  0  0  0  0  0  0  0  0  0  0
   -1.9729   14.1297    0.3631 H   0  0  0  0  0  0  0  0  0  0  0  0
   -0.8374   14.4477    1.7768 H   0  0  0  0  0  0  0  0  0  0  0  0
   -0.9714   16.3330   -0.0573 H   0  0  0  0  0  0  0  0  0  0  0  0
    1.8910   13.8416   -1.4342 H   0  0  0  0  0  0  0  0  0  0  0  0
    3.1970   15.2507    0.9757 H   0  0  0  0  0  0  0  0  0  0  0  0
    3.9536   13.9864   -0.0921 H   0  0  0  0  0  0  0  0  0  0  0  0
    4.7415   16.2672   -0.6387 H   0  0  0  0  0  0  0  0  0  0  0  0
    3.8431   15.4860   -1.9979 H   0  0  0  0  0  0  0  0  0  0  0  0
    3.1416   17.7751   -1.8258 H   0  0  0  0  0  0  0  0  0  0  0  0
    3.2880   18.5710    0.1510 H   0  0  0  0  0  0  0  0  0  0  0  0
    1.1693   15.1723   -2.9755 H   0  0  0  0  0  0  0  0  0  0  0  0
    0.4469   16.7611   -3.4003 H   0  0  0  0  0  0  0  0  0  0  0  0
    2.2316   16.5571   -3.4003 H   0  0  0  0  0  0  0  0  0  0  0  0
    0.2772   18.1697   -0.2276 H   0  0  0  0  0  0  0  0  0  0  0  0
    0.9339   18.7953   -1.7781 H   0  0  0  0  0  0  0  0  0  0  0  0
   -0.5265   17.7494   -1.7781 H   0  0  0  0  0  0  0  0  0  0  0  0
    1.0404   12.8701    2.6301 H   0  0  0  0  0  0  0  0  0  0  0  0
    2.7692   12.9787    2.1547 H   0  0  0  0  0  0  0  0  0  0  0  0
    1.7434   14.4532    2.1547 H   0  0  0  0  0  0  0  0  0  0  0  0
    3.1394   12.0866   -0.2793 H   0  0  0  0  0  0  0  0  0  0  0  0
    2.1112   11.1402    0.9383 H   0  0  0  0  0  0  0  0  0  0  0  0
    1.6055   11.4941   -2.0280 H   0  0  0  0  0  0  0  0  0  0  0  0
    2.0185    9.9836   -1.1252 H   0  0  0  0  0  0  0  0  0  0  0  0
   -0.0072   10.5289    1.3839 H   0  0  0  0  0  0  0  0  0  0  0  0
   -1.0663    9.3464    0.5433 H   0  0  0  0  0  0  0  0  0  0  0  0
    0.7150    9.1152    0.5433 H   0  0  0  0  0  0  0  0  0  0  0  0
  1  2  1  0
  2  3  1  0
  3  4  1  0
  4  5  1  0
  5  6  1  0
  6  7  1  0
  7  8  1  0
  7  9  1  0
  2 10  1  0
 10 11  1  0
 11 12  1  0
 12 13  1  0
 13 14  1  6
 13 15  1  0
 15 16  1  0
 16 17  1  0
 17 18  2  0
 18 19  1  0
 19 20  1  0
 20 21  1  0
 21 22  1  0
 22 23  1  0
 22 24  1  0
 24 25  1  0
 24 26  1  0
 19 27  1  0
 27 28  1  1
 27 29  1  0
 29 30  1  0
 30 31  1  0
 31 32  1  1
  7  5  1  0
 31 10  1  0
 31 13  1  0
 27 15  1  0
 24 18  1  0
  1 33  1  0
  1 34  1  0
  1 35  1  0
  2 36  1  1
  3 37  1  0
  3 38  1  0
  4 39  1  0
  4 40  1  0
  5 41  1  6
  8 42  1  0
  8 43  1  0
  8 44  1  0
  9 45  1  0
  9 46  1  0
  9 47  1  0
 10 48  1  6
 11 49  1  0
 11 50  1  0
 12 51  1  0
 12 52  1  0
 14 53  1  0
 14 54  1  0
 14 55  1  0
 15 56  1  1
 16 57  1  0
 16 58  1  0
 17 59  1  0
 19 60  1  6
 20 61  1  0
 20 62  1  0
 21 63  1  0
 21 64  1  0
 22 65  1  6
 23 66  1  0
 25 67  1  0
 25 68  1  0
 25 69  1  0
 26 70  1  0
 26 71  1  0
 26 72  1  0
 28 73  1  0
 28 74  1  0
 28 75  1  0
 29 76  1  0
 29 77  1  0
 30 78  1  0
 30 79  1  0
 32 80  1  0
 32 81  1  0
 32 82  1  0
M  END
>  <meeko>  (17) 
{"is_sidechain": [false], "intermolecular_energy": 2.731, "internal_energy": -0.839}

$$$$
EPH_relaxed_0001_pdb2pqr_Repair_162_r2_0001_out
     RDKit          3D

 82 86  0  0  0  0  0  0  0  0999 V2000
    3.0940   14.8030   -7.5500 C   0  0  0  0  0  0  0  0  0  0  0  0
    1.5720   14.8770   -7.3960 C   0  0  2  0  0  0  0  0  0  0  0  0
    0.9820   16.1390   -8.0560 C   0  0  0  0  0  0  0  0  0  0  0  0
    1.9130   16.7880   -9.0840 C   0  0  0  0  0  0  0  0  0  0  0  0
    1.5650   16.3800  -10.4830 C   0  0  2  0  0  0  0  0  0  0  0  0
    0.9770   15.0770  -10.5980 O   0  0  0  0  0  0  0  0  0  0  0  0
    2.2590   15.2520  -11.2230 C   0  0  0  0  0  0  0  0  0  0  0  0
    3.3590   14.4620  -10.5860 C   0  0  0  0  0  0  0  0  0  0  0  0
    2.2080   15.2380  -12.7190 C   0  0  0  0  0  0  0  0  0  0  0  0
    1.1970   14.8370   -5.9190 C   0  0  1  0  0  0  0  0  0  0  0  0
   -0.0480   15.7050   -5.5960 C   0  0  0  0  0  0  0  0  0  0  0  0
   -0.8260   14.9700   -4.4730 C   0  0  0  0  0  0  0  0  0  0  0  0
    0.1560   13.8920   -3.9600 C   0  0  1  0  0  0  0  0  0  0  0  0
    1.1070   14.6480   -2.9800 C   0  0  0  0  0  0  0  0  0  0  0  0
   -0.4870   12.6360   -3.2860 C   0  0  2  0  0  0  0  0  0  0  0  0
   -1.2940   12.9230   -2.0080 C   0  0  0  0  0  0  0  0  0  0  0  0
   -0.5160   12.8590   -0.7350 C   0  0  0  0  0  0  0  0  0  0  0  0
    0.7040   12.3070   -0.5910 C   0  0  0  0  0  0  0  0  0  0  0  0
    1.3840   11.5830   -1.7600 C   0  0  1  0  0  0  0  0  0  0  0  0
    1.9630   10.2310   -1.2650 C   0  0  0  0  0  0  0  0  0  0  0  0
    2.8880   10.3960   -0.0630 C   0  0  0  0  0  0  0  0  0  0  0  0
    2.1580   11.0670    1.0990 C   0  0  2  0  0  0  0  0  0  0  0  0
    1.1410   10.1820    1.5770 O   0  0  0  0  0  0  0  0  0  0  0  0
    1.5250   12.4340    0.7160 C   0  0  0  0  0  0  0  0  0  0  0  0
    2.6430   13.4810    0.4880 C   0  0  0  0  0  0  0  0  0  0  0  0
    0.7020   12.9360    1.9330 C   0  0  0  0  0  0  0  0  0  0  0  0
    0.5130   11.4270   -3.0800 C   0  0  1  0  0  0  0  0  0  0  0  0
   -0.3590   10.1370   -2.9930 C   0  0  0  0  0  0  0  0  0  0  0  0
    1.4760   11.2300   -4.3100 C   0  0  0  0  0  0  0  0  0  0  0  0
    1.9820   12.5070   -5.0080 C   0  0  0  0  0  0  0  0  0  0  0  0
    0.8240   13.4600   -5.3170 C   0  0  2  0  0  0  0  0  0  0  0  0
   -0.1380   12.7340   -6.3180 C   0  0  0  0  0  0  0  0  0  0  0  0
    3.5625   14.7802   -6.5550 H   0  0  0  0  0  0  0  0  0  0  0  0
    3.3627   13.8907   -8.1028 H   0  0  0  0  0  0  0  0  0  0  0  0
    3.4499   15.6849   -8.1028 H   0  0  0  0  0  0  0  0  0  0  0  0
    1.1441   14.0048   -7.9120 H   0  0  0  0  0  0  0  0  0  0  0  0
    0.0457   15.8609   -8.5621 H   0  0  0  0  0  0  0  0  0  0  0  0
    0.8231   16.8763   -7.2553 H   0  0  0  0  0  0  0  0  0  0  0  0
    1.8291   17.8816   -9.0004 H   0  0  0  0  0  0  0  0  0  0  0  0
    2.9400   16.4540   -8.8751 H   0  0  0  0  0  0  0  0  0  0  0  0
    1.3535   17.4234  -10.7596 H   0  0  0  0  0  0  0  0  0  0  0  0
    3.2700   14.5259   -9.4915 H   0  0  0  0  0  0  0  0  0  0  0  0
    3.2838   13.4102  -10.8992 H   0  0  0  0  0  0  0  0  0  0  0  0
    4.3317   14.8692  -10.8992 H   0  0  0  0  0  0  0  0  0  0  0  0
    1.1960   14.9602  -13.0488 H   0  0  0  0  0  0  0  0  0  0  0  0
    2.4575   16.2379  -13.1038 H   0  0  0  0  0  0  0  0  0  0  0  0
    2.9330   14.5056  -13.1038 H   0  0  0  0  0  0  0  0  0  0  0  0
    2.1393   15.1959   -5.4793 H   0  0  0  0  0  0  0  0  0  0  0  0
    0.2642   16.7017   -5.2508 H   0  0  0  0  0  0  0  0  0  0  0  0
   -0.6768   15.8417   -6.4882 H   0  0  0  0  0  0  0  0  0  0  0  0
   -1.0937   15.6674   -3.6655 H   0  0  0  0  0  0  0  0  0  0  0  0
   -1.7701   14.5363   -4.8344 H   0  0  0  0  0  0  0  0  0  0  0  0
    0.8207   14.4204   -1.9426 H   0  0  0  0  0  0  0  0  0  0  0  0
    2.1442   14.3251   -3.1534 H   0  0  0  0  0  0  0  0  0  0  0  0
    1.0264   15.7313   -3.1534 H   0  0  0  0  0  0  0  0  0  0  0  0
   -1.2231   12.3156   -4.0380 H   0  0  0  0  0  0  0  0  0  0  0  0
   -1.7209   13.9330   -2.0951 H   0  0  0  0  0  0  0  0  0  0  0  0
   -2.0521   12.1287   -1.9418 H   0  0  0  0  0  0  0  0  0  0  0  0
   -0.9783   13.2998    0.1605 H   0  0  0  0  0  0  0  0  0  0  0  0
    2.2013   12.2406   -2.0910 H   0  0  0  0  0  0  0  0  0  0  0  0
    1.1286    9.5732   -0.9802 H   0  0  0  0  0  0  0  0  0  0  0  0
    2.5556    9.8009   -2.0859 H   0  0  0  0  0  0  0  0  0  0  0  0
    3.2416    9.4051    0.2580 H   0  0  0  0  0  0  0  0  0  0  0  0
    3.7371   11.0302   -0.3576 H   0  0  0  0  0  0  0  0  0  0  0  0
    2.9027   11.2746    1.8815 H   0  0  0  0  0  0  0  0  0  0  0  0
    0.3840   10.2490    0.9710 H   0  0  0  0  0  0  0  0  0  0  0  0
    3.0192   13.8333    1.4598 H   0  0  0  0  0  0  0  0  0  0  0  0
    3.4659   13.0212   -0.0789 H   0  0  0  0  0  0  0  0  0  0  0  0
    2.2381   14.3323   -0.0789 H   0  0  0  0  0  0  0  0  0  0  0  0
    1.2017   12.6312    2.8644 H   0  0  0  0  0  0  0  0  0  0  0  0
    0.6283   14.0330    1.8984 H   0  0  0  0  0  0  0  0  0  0  0  0
   -0.3071   12.4995    1.8984 H   0  0  0  0  0  0  0  0  0  0  0  0
   -0.5316    9.8816   -1.9371 H   0  0  0  0  0  0  0  0  0  0  0  0
   -1.3243   10.3127   -3.4903 H   0  0  0  0  0  0  0  0  0  0  0  0
    0.1639    9.3067   -3.4903 H   0  0  0  0  0  0  0  0  0  0  0  0
    2.3563   10.6725   -3.9574 H   0  0  0  0  0  0  0  0  0  0  0  0
    0.8725   10.7081   -5.0672 H   0  0  0  0  0  0  0  0  0  0  0  0
    2.7007   13.0162   -4.3491 H   0  0  0  0  0  0  0  0  0  0  0  0
    2.4625   12.2212   -5.9553 H   0  0  0  0  0  0  0  0  0  0  0  0
   -0.8921   12.1649   -5.7545 H   0  0  0  0  0  0  0  0  0  0  0  0
   -0.6397   13.4806   -6.9512 H   0  0  0  0  0  0  0  0  0  0  0  0
    0.4423   12.0468   -6.9512 H   0  0  0  0  0  0  0  0  0  0  0  0
  1  2  1  0
  2  3  1  0
  3  4  1  0
  4  5  1  0
  5  6  1  0
  6  7  1  0
  7  8  1  0
  7  9  1  0
  2 10  1  0
 10 11  1  0
 11 12  1  0
 12 13  1  0
 13 14  1  1
 13 15  1  0
 15 16  1  0
 16 17  1  0
 17 18  2  0
 18 19  1  0
 19 20  1  0
 20 21  1  0
 21 22  1  0
 22 23  1  0
 22 24  1  0
 24 25  1  0
 24 26  1  0
 19 27  1  0
 27 28  1  1
 27 29  1  0
 29 30  1  0
 30 31  1  0
 31 32  1  6
  7  5  1  0
 31 10  1  0
 31 13  1  0
 27 15  1  0
 24 18  1  0
  1 33  1  0
  1 34  1  0
  1 35  1  0
  2 36  1  6
  3 37  1  0
  3 38  1  0
  4 39  1  0
  4 40  1  0
  5 41  1  6
  8 42  1  0
  8 43  1  0
  8 44  1  0
  9 45  1  0
  9 46  1  0
  9 47  1  0
 10 48  1  1
 11 49  1  0
 11 50  1  0
 12 51  1  0
 12 52  1  0
 14 53  1  0
 14 54  1  0
 14 55  1  0
 15 56  1  6
 16 57  1  0
 16 58  1  0
 17 59  1  0
 19 60  1  6
 20 61  1  0
 20 62  1  0
 21 63  1  0
 21 64  1  0
 22 65  1  1
 23 66  1  0
 25 67  1  0
 25 68  1  0
 25 69  1  0
 26 70  1  0
 26 71  1  0
 26 72  1  0
 28 73  1  0
 28 74  1  0
 28 75  1  0
 29 76  1  0
 29 77  1  0
 30 78  1  0
 30 79  1  0
 32 80  1  0
 32 81  1  0
 32 82  1  0
M  END
>  <meeko>  (18) 
{"is_sidechain": [false], "intermolecular_energy": 2.731, "internal_energy": -0.839}

$$$$
