EPH_relaxed_0001_pdb2pqr_Repair_103_r2_0001_out
     RDKit          3D

 82 86  0  0  0  0  0  0  0  0999 V2000
   -1.5840    8.5710   -1.8310 C   0  0  0  0  0  0  0  0  0  0  0  0
   -1.9600    9.1120   -0.4480 C   0  0  2  0  0  0  0  0  0  0  0  0
   -3.4530    9.4850   -0.3570 C   0  0  0  0  0  0  0  0  0  0  0  0
   -4.3900    8.2740   -0.3480 C   0  0  0  0  0  0  0  0  0  0  0  0
   -5.0620    8.0830   -1.6740 C   0  0  2  0  0  0  0  0  0  0  0  0
   -6.3250    8.7490   -1.8070 O   0  0  0  0  0  0  0  0  0  0  0  0
   -6.3580    7.3130   -1.8520 C   0  0  0  0  0  0  0  0  0  0  0  0
   -7.0570    6.6840   -0.6880 C   0  0  0  0  0  0  0  0  0  0  0  0
   -6.6810    6.7600   -3.2040 C   0  0  0  0  0  0  0  0  0  0  0  0
   -1.0990   10.3250   -0.1130 C   0  0  1  0  0  0  0  0  0  0  0  0
   -0.0310   10.0180    0.9700 C   0  0  0  0  0  0  0  0  0  0  0  0
    1.2220   10.8590    0.6130 C   0  0  0  0  0  0  0  0  0  0  0  0
    0.7270   11.8620   -0.4550 C   0  0  1  0  0  0  0  0  0  0  0  0
    0.0370   13.0030    0.3550 C   0  0  0  0  0  0  0  0  0  0  0  0
    1.8120   12.4220   -1.4320 C   0  0  2  0  0  0  0  0  0  0  0  0
    2.9310   13.2410   -0.7640 C   0  0  0  0  0  0  0  0  0  0  0  0
    2.6710   14.7070   -0.6590 C   0  0  0  0  0  0  0  0  0  0  0  0
    1.7210   15.3840   -1.3310 C   0  0  0  0  0  0  0  0  0  0  0  0
    0.8480   14.6830   -2.3800 C   0  0  1  0  0  0  0  0  0  0  0  0
    0.7740   15.5570   -3.6590 C   0  0  0  0  0  0  0  0  0  0  0  0
    0.3080   16.9810   -3.3680 C   0  0  0  0  0  0  0  0  0  0  0  0
    1.2340   17.6640   -2.3660 C   0  0  2  0  0  0  0  0  0  0  0  0
    2.5160   17.8490   -2.9740 O   0  0  0  0  0  0  0  0  0  0  0  0
    1.3940   16.8690   -1.0400 C   0  0  0  0  0  0  0  0  0  0  0  0
    0.0730   16.9270   -0.2350 C   0  0  0  0  0  0  0  0  0  0  0  0
    2.4610   17.5940   -0.1750 C   0  0  0  0  0  0  0  0  0  0  0  0
    1.2230   13.1710   -2.6950 C   0  0  1  0  0  0  0  0  0  0  0  0
    2.3220   13.1140   -3.7990 C   0  0  0  0  0  0  0  0  0  0  0  0
   -0.0410   12.4410   -3.2870 C   0  0  0  0  0  0  0  0  0  0  0  0
   -1.0130   11.8050   -2.2760 C   0  0  0  0  0  0  0  0  0  0  0  0
   -0.2600   10.9400   -1.2610 C   0  0  2  0  0  0  0  0  0  0  0  0
    0.4270    9.7700   -2.0440 C   0  0  0  0  0  0  0  0  0  0  0  0
   -0.9597    7.6727   -1.7160 H   0  0  0  0  0  0  0  0  0  0  0  0
   -2.4987    8.3133   -2.3850 H   0  0  0  0  0  0  0  0  0  0  0  0
   -1.0237    9.3385   -2.3850 H   0  0  0  0  0  0  0  0  0  0  0  0
   -1.7746    8.3108    0.2826 H   0  0  0  0  0  0  0  0  0  0  0  0
   -3.6128   10.0548    0.5703 H   0  0  0  0  0  0  0  0  0  0  0  0
   -3.6935   10.0712   -1.2562 H   0  0  0  0  0  0  0  0  0  0  0  0
   -3.8054    7.3727   -0.1116 H   0  0  0  0  0  0  0  0  0  0  0  0
   -5.1687    8.4487    0.4090 H   0  0  0  0  0  0  0  0  0  0  0  0
   -4.0895    8.0190   -2.1841 H   0  0  0  0  0  0  0  0  0  0  0  0
   -6.6286    7.0695    0.2489 H   0  0  0  0  0  0  0  0  0  0  0  0
   -8.1289    6.9277   -0.7286 H   0  0  0  0  0  0  0  0  0  0  0  0
   -6.9273    5.5924   -0.7286 H   0  0  0  0  0  0  0  0  0  0  0  0
   -7.2329    5.8151   -3.0914 H   0  0  0  0  0  0  0  0  0  0  0  0
   -7.2994    7.4821   -3.7574 H   0  0  0  0  0  0  0  0  0  0  0  0
   -5.7483    6.5761   -3.7574 H   0  0  0  0  0  0  0  0  0  0  0  0
   -1.8847   11.0295    0.1974 H   0  0  0  0  0  0  0  0  0  0  0  0
   -0.4070   10.3016    1.9641 H   0  0  0  0  0  0  0  0  0  0  0  0
    0.2079    8.9446    0.9963 H   0  0  0  0  0  0  0  0  0  0  0  0
    1.5988   11.3901    1.4995 H   0  0  0  0  0  0  0  0  0  0  0  0
    2.0522   10.2365    0.2478 H   0  0  0  0  0  0  0  0  0  0  0  0
    0.1535   12.8104    1.4317 H   0  0  0  0  0  0  0  0  0  0  0  0
    0.5041   13.9663    0.1022 H   0  0  0  0  0  0  0  0  0  0  0  0
   -1.0330   13.0368    0.1022 H   0  0  0  0  0  0  0  0  0  0  0  0
    2.2928   11.5041   -1.8013 H   0  0  0  0  0  0  0  0  0  0  0  0
    3.0793   12.8482    0.2527 H   0  0  0  0  0  0  0  0  0  0  0  0
    3.8146   13.1337   -1.4104 H   0  0  0  0  0  0  0  0  0  0  0  0
    3.3102   15.2835    0.0259 H   0  0  0  0  0  0  0  0  0  0  0  0
   -0.1524   14.5917   -1.9319 H   0  0  0  0  0  0  0  0  0  0  0  0
    1.7739   15.5995   -4.1155 H   0  0  0  0  0  0  0  0  0  0  0  0
    0.0393   15.0968   -4.3361 H   0  0  0  0  0  0  0  0  0  0  0  0
    0.3041   17.5570   -4.3051 H   0  0  0  0  0  0  0  0  0  0  0  0
   -0.7037   16.9383   -2.9384 H   0  0  0  0  0  0  0  0  0  0  0  0
    0.7781   18.6291   -2.1002 H   0  0  0  0  0  0  0  0  0  0  0  0
    2.7730   18.7770   -2.8430 H   0  0  0  0  0  0  0  0  0  0  0  0
    0.2989   16.9171    0.8415 H   0  0  0  0  0  0  0  0  0  0  0  0
   -0.4699   17.8498   -0.4872 H   0  0  0  0  0  0  0  0  0  0  0  0
   -0.5487   16.0553   -0.4872 H   0  0  0  0  0  0  0  0  0  0  0  0
    2.2352   17.4405    0.8906 H   0  0  0  0  0  0  0  0  0  0  0  0
    3.4565   17.1846   -0.4015 H   0  0  0  0  0  0  0  0  0  0  0  0
    2.4470   18.6703   -0.4015 H   0  0  0  0  0  0  0  0  0  0  0  0
    3.3140   13.0625   -3.3265 H   0  0  0  0  0  0  0  0  0  0  0  0
    2.1672   12.2227   -4.4248 H   0  0  0  0  0  0  0  0  0  0  0  0
    2.2603   14.0166   -4.4248 H   0  0  0  0  0  0  0  0  0  0  0  0
   -0.6073   13.1794   -3.8737 H   0  0  0  0  0  0  0  0  0  0  0  0
    0.3600   11.5985   -3.8696 H   0  0  0  0  0  0  0  0  0  0  0  0
   -1.5490   12.6030   -1.7412 H   0  0  0  0  0  0  0  0  0  0  0  0
   -1.7209   11.1661   -2.8244 H   0  0  0  0  0  0  0  0  0  0  0  0
    0.8503    9.0491   -1.3290 H   0  0  0  0  0  0  0  0  0  0  0  0
   -0.3179    9.2649   -2.6764 H   0  0  0  0  0  0  0  0  0  0  0  0
    1.2311   10.1744   -2.6764 H   0  0  0  0  0  0  0  0  0  0  0  0
  1  2  1  0
  2  3  1  0
  3  4  1  0
  4  5  1  0
  5  6  1  0
  6  7  1  0
  7  8  1  0
  7  9  1  0
  2 10  1  0
 10 11  1  0
 11 12  1  0
 12 13  1  0
 13 14  1  1
 13 15  1  0
 15 16  1  0
 16 17  1  0
 17 18  2  0
 18 19  1  0
 19 20  1  0
 20 21  1  0
 21 22  1  0
 22 23  1  0
 22 24  1  0
 24 25  1  0
 24 26  1  0
 19 27  1  0
 27 28  1  6
 27 29  1  0
 29 30  1  0
 30 31  1  0
 31 32  1  6
  7  5  1  0
 31 10  1  0
 31 13  1  0
 27 15  1  0
 24 18  1  0
  1 33  1  0
  1 34  1  0
  1 35  1  0
  2 36  1  1
  3 37  1  0
  3 38  1  0
  4 39  1  0
  4 40  1  0
  5 41  1  6
  8 42  1  0
  8 43  1  0
  8 44  1  0
  9 45  1  0
  9 46  1  0
  9 47  1  0
 10 48  1  1
 11 49  1  0
 11 50  1  0
 12 51  1  0
 12 52  1  0
 14 53  1  0
 14 54  1  0
 14 55  1  0
 15 56  1  6
 16 57  1  0
 16 58  1  0
 17 59  1  0
 19 60  1  1
 20 61  1  0
 20 62  1  0
 21 63  1  0
 21 64  1  0
 22 65  1  1
 23 66  1  0
 25 67  1  0
 25 68  1  0
 25 69  1  0
 26 70  1  0
 26 71  1  0
 26 72  1  0
 28 73  1  0
 28 74  1  0
 28 75  1  0
 29 76  1  0
 29 77  1  0
 30 78  1  0
 30 79  1  0
 32 80  1  0
 32 81  1  0
 32 82  1  0
M  END
>  <meeko>  (1) 
{"is_sidechain": [false], "intermolecular_energy": 2.731, "internal_energy": -0.839}

$$$$
EPH_relaxed_0001_pdb2pqr_Repair_103_r2_0001_out
     RDKit          3D

 82 86  0  0  0  0  0  0  0  0999 V2000
    4.2750   17.5080   -0.6410 C   0  0  0  0  0  0  0  0  0  0  0  0
    2.9150   18.0970   -0.2550 C   0  0  2  0  0  0  0  0  0  0  0  0
    2.9620   18.8260    1.1030 C   0  0  0  0  0  0  0  0  0  0  0  0
    4.3100   18.7060    1.8200 C   0  0  0  0  0  0  0  0  0  0  0  0
    4.2490   19.2610    3.2100 C   0  0  2  0  0  0  0  0  0  0  0  0
    5.2900   20.1940    3.5280 O   0  0  0  0  0  0  0  0  0  0  0  0
    5.2900   18.9670    4.2750 C   0  0  0  0  0  0  0  0  0  0  0  0
    6.4650   18.0840    3.9940 C   0  0  0  0  0  0  0  0  0  0  0  0
    4.9100   19.1360    5.7130 C   0  0  0  0  0  0  0  0  0  0  0  0
    1.8630   16.9950   -0.2180 C   0  0  1  0  0  0  0  0  0  0  0  0
    0.4320   17.5260   -0.4970 C   0  0  0  0  0  0  0  0  0  0  0  0
   -0.3120   16.4150   -1.2820 C   0  0  0  0  0  0  0  0  0  0  0  0
    0.5900   15.1670   -1.1420 C   0  0  1  0  0  0  0  0  0  0  0  0
    0.2460   14.5790    0.2620 C   0  0  0  0  0  0  0  0  0  0  0  0
    0.4580   14.0890   -2.2670 C   0  0  2  0  0  0  0  0  0  0  0  0
   -0.9280   13.4310   -2.3810 C   0  0  0  0  0  0  0  0  0  0  0  0
   -1.1170   12.1960   -1.5640 C   0  0  0  0  0  0  0  0  0  0  0  0
   -0.1320   11.4770   -0.9950 C   0  0  0  0  0  0  0  0  0  0  0  0
    1.3410   11.8340   -1.2300 C   0  0  1  0  0  0  0  0  0  0  0  0
    2.1390   10.5470   -1.5640 C   0  0  0  0  0  0  0  0  0  0  0  0
    1.9640    9.4590   -0.5090 C   0  0  0  0  0  0  0  0  0  0  0  0
    0.4920    9.0900   -0.3450 C   0  0  2  0  0  0  0  0  0  0  0  0
    0.0370    8.4650   -1.5490 O   0  0  0  0  0  0  0  0  0  0  0  0
   -0.4130   10.3100   -0.0160 C   0  0  0  0  0  0  0  0  0  0  0  0
   -0.1200   10.8020    1.4230 C   0  0  0  0  0  0  0  0  0  0  0  0
   -1.8880    9.8250   -0.0170 C   0  0  0  0  0  0  0  0  0  0  0  0
    1.6130   13.0080   -2.2670 C   0  0  1  0  0  0  0  0  0  0  0  0
    1.6840   12.4320   -3.7150 C   0  0  0  0  0  0  0  0  0  0  0  0
    3.0240   13.6390   -1.9700 C   0  0  0  0  0  0  0  0  0  0  0  0
    3.0710   14.7810   -0.9370 C   0  0  0  0  0  0  0  0  0  0  0  0
    2.0070   15.8400   -1.2410 C   0  0  2  0  0  0  0  0  0  0  0  0
    2.3400   16.4650   -2.6390 C   0  0  0  0  0  0  0  0  0  0  0  0
    4.8405   17.2631    0.2702 H   0  0  0  0  0  0  0  0  0  0  0  0
    4.1237   16.5948   -1.2352 H   0  0  0  0  0  0  0  0  0  0  0  0
    4.8376   18.2431   -1.2352 H   0  0  0  0  0  0  0  0  0  0  0  0
    2.6477   18.8409   -1.0199 H   0  0  0  0  0  0  0  0  0  0  0  0
    2.7533   19.8924    0.9321 H   0  0  0  0  0  0  0  0  0  0  0  0
    2.2105   18.3496    1.7497 H   0  0  0  0  0  0  0  0  0  0  0  0
    4.5929   17.6443    1.8721 H   0  0  0  0  0  0  0  0  0  0  0  0
    5.0535   19.2844    1.2519 H   0  0  0  0  0  0  0  0  0  0  0  0
    3.1510   19.1955    3.2134 H   0  0  0  0  0  0  0  0  0  0  0  0
    6.9086   17.7506    4.9438 H   0  0  0  0  0  0  0  0  0  0  0  0
    6.1355   17.2081    3.4158 H   0  0  0  0  0  0  0  0  0  0  0  0
    7.2146   18.6441    3.4158 H   0  0  0  0  0  0  0  0  0  0  0  0
    5.7272   18.7726    6.3534 H   0  0  0  0  0  0  0  0  0  0  0  0
    4.7267   20.2005    5.9212 H   0  0  0  0  0  0  0  0  0  0  0  0
    3.9968   18.5592    5.9212 H   0  0  0  0  0  0  0  0  0  0  0  0
    2.0271   16.6173    0.8020 H   0  0  0  0  0  0  0  0  0  0  0  0
   -0.0869   17.7326    0.4507 H   0  0  0  0  0  0  0  0  0  0  0  0
    0.4635   18.4629   -1.0725 H   0  0  0  0  0  0  0  0  0  0  0  0
   -1.3038   16.2282   -0.8445 H   0  0  0  0  0  0  0  0  0  0  0  0
   -0.4828   16.6902   -2.3332 H   0  0  0  0  0  0  0  0  0  0  0  0
    0.6363   15.2462    1.0446 H   0  0  0  0  0  0  0  0  0  0  0  0
   -0.8456   14.4917    0.3655 H   0  0  0  0  0  0  0  0  0  0  0  0
    0.7048   13.5846    0.3655 H   0  0  0  0  0  0  0  0  0  0  0  0
    0.5805   14.6869   -3.1822 H   0  0  0  0  0  0  0  0  0  0  0  0
   -1.6809   14.1673   -2.0631 H   0  0  0  0  0  0  0  0  0  0  0  0
   -1.0316   13.1199   -3.4310 H   0  0  0  0  0  0  0  0  0  0  0  0
   -2.1484   11.8440   -1.4145 H   0  0  0  0  0  0  0  0  0  0  0  0
    1.7045   12.2631   -0.2846 H   0  0  0  0  0  0  0  0  0  0  0  0
    1.7914   10.1581   -2.5325 H   0  0  0  0  0  0  0  0  0  0  0  0
    3.2056   10.8142   -1.5939 H   0  0  0  0  0  0  0  0  0  0  0  0
    2.5270    8.5655   -0.8165 H   0  0  0  0  0  0  0  0  0  0  0  0
    2.3401    9.8385    0.4525 H   0  0  0  0  0  0  0  0  0  0  0  0
    0.4175    8.4043    0.5119 H   0  0  0  0  0  0  0  0  0  0  0  0
    0.7080    8.6230   -2.2350 H   0  0  0  0  0  0  0  0  0  0  0  0
   -0.5437   10.0906    2.1471 H   0  0  0  0  0  0  0  0  0  0  0  0
    0.9676   10.8729    1.5720 H   0  0  0  0  0  0  0  0  0  0  0  0
   -0.5758   11.7920    1.5720 H   0  0  0  0  0  0  0  0  0  0  0  0
   -2.2370    9.7103    1.0199 H   0  0  0  0  0  0  0  0  0  0  0  0
   -2.5166   10.5638   -0.5358 H   0  0  0  0  0  0  0  0  0  0  0  0
   -1.9555    8.8574   -0.5358 H   0  0  0  0  0  0  0  0  0  0  0  0
    1.8185   11.3412   -3.6695 H   0  0  0  0  0  0  0  0  0  0  0  0
    0.7504   12.6644   -4.2483 H   0  0  0  0  0  0  0  0  0  0  0  0
    2.5332   12.8842   -4.2483 H   0  0  0  0  0  0  0  0  0  0  0  0
    3.6786   12.8336   -1.6056 H   0  0  0  0  0  0  0  0  0  0  0  0
    3.3402   14.0964   -2.9191 H   0  0  0  0  0  0  0  0  0  0  0  0
    2.8900   14.3667    0.0658 H   0  0  0  0  0  0  0  0  0  0  0  0
    4.0620   15.2561   -0.9845 H   0  0  0  0  0  0  0  0  0  0  0  0
    2.8529   17.4277   -2.4974 H   0  0  0  0  0  0  0  0  0  0  0  0
    2.9931   15.7807   -3.2004 H   0  0  0  0  0  0  0  0  0  0  0  0
    1.4077   16.6253   -3.2004 H   0  0  0  0  0  0  0  0  0  0  0  0
  1  2  1  0
  2  3  1  0
  3  4  1  0
  4  5  1  0
  5  6  1  0
  6  7  1  0
  7  8  1  0
  7  9  1  0
  2 10  1  0
 10 11  1  0
 11 12  1  0
 12 13  1  0
 13 14  1  1
 13 15  1  0
 15 16  1  0
 16 17  1  0
 17 18  2  0
 18 19  1  0
 19 20  1  0
 20 21  1  0
 21 22  1  0
 22 23  1  0
 22 24  1  0
 24 25  1  0
 24 26  1  0
 19 27  1  0
 27 28  1  6
 27 29  1  0
 29 30  1  0
 30 31  1  0
 31 32  1  6
  7  5  1  0
 31 10  1  0
 31 13  1  0
 27 15  1  0
 24 18  1  0
  1 33  1  0
  1 34  1  0
  1 35  1  0
  2 36  1  6
  3 37  1  0
  3 38  1  0
  4 39  1  0
  4 40  1  0
  5 41  1  1
  8 42  1  0
  8 43  1  0
  8 44  1  0
  9 45  1  0
  9 46  1  0
  9 47  1  0
 10 48  1  1
 11 49  1  0
 11 50  1  0
 12 51  1  0
 12 52  1  0
 14 53  1  0
 14 54  1  0
 14 55  1  0
 15 56  1  6
 16 57  1  0
 16 58  1  0
 17 59  1  0
 19 60  1  1
 20 61  1  0
 20 62  1  0
 21 63  1  0
 21 64  1  0
 22 65  1  1
 23 66  1  0
 25 67  1  0
 25 68  1  0
 25 69  1  0
 26 70  1  0
 26 71  1  0
 26 72  1  0
 28 73  1  0
 28 74  1  0
 28 75  1  0
 29 76  1  0
 29 77  1  0
 30 78  1  0
 30 79  1  0
 32 80  1  0
 32 81  1  0
 32 82  1  0
M  END
>  <meeko>  (2) 
{"is_sidechain": [false], "intermolecular_energy": 2.731, "internal_energy": -0.839}

$$$$
EPH_relaxed_0001_pdb2pqr_Repair_103_r2_0001_out
     RDKit          3D

 82 86  0  0  0  0  0  0  0  0999 V2000
    2.3920   17.9470   -2.6580 C   0  0  0  0  0  0  0  0  0  0  0  0
    1.0680   17.5940   -1.9740 C   0  0  2  0  0  0  0  0  0  0  0  0
    1.1720   17.6630   -0.4370 C   0  0  0  0  0  0  0  0  0  0  0  0
    0.8700   19.0490    0.1390 C   0  0  0  0  0  0  0  0  0  0  0  0
   -0.5670   19.1800    0.5440 C   0  0  2  0  0  0  0  0  0  0  0  0
   -1.4540   18.2430   -0.0820 O   0  0  0  0  0  0  0  0  0  0  0  0
   -1.6660   19.6270   -0.4020 C   0  0  0  0  0  0  0  0  0  0  0  0
   -1.3740   19.9740   -1.8280 C   0  0  0  0  0  0  0  0  0  0  0  0
   -2.9230   20.1940    0.1800 C   0  0  0  0  0  0  0  0  0  0  0  0
    0.6160   16.2030   -2.4040 C   0  0  1  0  0  0  0  0  0  0  0  0
    0.6860   16.0010   -3.9410 C   0  0  0  0  0  0  0  0  0  0  0  0
    1.0870   14.5220   -4.1800 C   0  0  0  0  0  0  0  0  0  0  0  0
    0.9100   13.8430   -2.8010 C   0  0  1  0  0  0  0  0  0  0  0  0
   -0.6180   13.5430   -2.6950 C   0  0  0  0  0  0  0  0  0  0  0  0
    1.7680   12.5610   -2.5480 C   0  0  2  0  0  0  0  0  0  0  0  0
    1.4740   11.3810   -3.4900 C   0  0  0  0  0  0  0  0  0  0  0  0
    0.4240   10.4320   -3.0140 C   0  0  0  0  0  0  0  0  0  0  0  0
   -0.0520   10.3580   -1.7570 C   0  0  0  0  0  0  0  0  0  0  0  0
    0.5420   11.2230   -0.6380 C   0  0  1  0  0  0  0  0  0  0  0  0
    0.7930   10.3460    0.6160 C   0  0  0  0  0  0  0  0  0  0  0  0
   -0.4550    9.5910    1.0620 C   0  0  0  0  0  0  0  0  0  0  0  0
   -0.9820    8.6980   -0.0580 C   0  0  2  0  0  0  0  0  0  0  0  0
   -0.0310    7.6570   -0.3030 O   0  0  0  0  0  0  0  0  0  0  0  0
   -1.2630    9.4710   -1.3770 C   0  0  0  0  0  0  0  0  0  0  0  0
   -2.4970   10.3880   -1.1910 C   0  0  0  0  0  0  0  0  0  0  0  0
   -1.6530    8.4330   -2.4640 C   0  0  0  0  0  0  0  0  0  0  0  0
    1.8090   12.0970   -1.0350 C   0  0  1  0  0  0  0  0  0  0  0  0
    3.1110   11.2560   -0.8620 C   0  0  0  0  0  0  0  0  0  0  0  0
    1.9290   13.3110   -0.0400 C   0  0  0  0  0  0  0  0  0  0  0  0
    1.1520   14.5900   -0.4070 C   0  0  0  0  0  0  0  0  0  0  0  0
    1.4190   14.9950   -1.8600 C   0  0  2  0  0  0  0  0  0  0  0  0
    2.9450   15.3240   -1.9930 C   0  0  0  0  0  0  0  0  0  0  0  0
    3.1565   18.1508   -1.8939 H   0  0  0  0  0  0  0  0  0  0  0  0
    2.7166   17.1040   -3.2857 H   0  0  0  0  0  0  0  0  0  0  0  0
    2.2538   18.8397   -3.2857 H   0  0  0  0  0  0  0  0  0  0  0  0
    0.3236   18.3405   -2.2880 H   0  0  0  0  0  0  0  0  0  0  0  0
    0.4571   16.9454   -0.0081 H   0  0  0  0  0  0  0  0  0  0  0  0
    2.2136   17.4259   -0.1745 H   0  0  0  0  0  0  0  0  0  0  0  0
    1.5056   19.2145    1.0214 H   0  0  0  0  0  0  0  0  0  0  0  0
    1.0759   19.7968   -0.6410 H   0  0  0  0  0  0  0  0  0  0  0  0
   -0.2766   19.5174    1.5499 H   0  0  0  0  0  0  0  0  0  0  0  0
   -0.6661   20.8152   -1.8631 H   0  0  0  0  0  0  0  0  0  0  0  0
   -0.9334   19.1026   -2.3346 H   0  0  0  0  0  0  0  0  0  0  0  0
   -2.3078   20.2592   -2.3346 H   0  0  0  0  0  0  0  0  0  0  0  0
   -2.8633   20.1671    1.2781 H   0  0  0  0  0  0  0  0  0  0  0  0
   -3.0454   21.2345   -0.1552 H   0  0  0  0  0  0  0  0  0  0  0  0
   -3.7840   19.5971   -0.1552 H   0  0  0  0  0  0  0  0  0  0  0  0
   -0.3998   16.2000   -1.9820 H   0  0  0  0  0  0  0  0  0  0  0  0
   -0.2948   16.2057   -4.3950 H   0  0  0  0  0  0  0  0  0  0  0  0
    1.4155   16.6866   -4.3967 H   0  0  0  0  0  0  0  0  0  0  0  0
    0.4291   14.0573   -4.9292 H   0  0  0  0  0  0  0  0  0  0  0  0
    2.1128   14.4245   -4.5649 H   0  0  0  0  0  0  0  0  0  0  0  0
   -0.9078   13.4861   -1.6354 H   0  0  0  0  0  0  0  0  0  0  0  0
   -1.1846   14.3471   -3.1874 H   0  0  0  0  0  0  0  0  0  0  0  0
   -0.8385   12.5844   -3.1874 H   0  0  0  0  0  0  0  0  0  0  0  0
    2.7816   12.9018   -2.8056 H   0  0  0  0  0  0  0  0  0  0  0  0
    1.1483   11.7911   -4.4573 H   0  0  0  0  0  0  0  0  0  0  0  0
    2.4058   10.7994   -3.5497 H   0  0  0  0  0  0  0  0  0  0  0  0
    0.0038    9.7342   -3.7532 H   0  0  0  0  0  0  0  0  0  0  0  0
   -0.2141   11.9895   -0.4125 H   0  0  0  0  0  0  0  0  0  0  0  0
    1.5823    9.6160    0.3833 H   0  0  0  0  0  0  0  0  0  0  0  0
    1.0893   11.0152    1.4372 H   0  0  0  0  0  0  0  0  0  0  0  0
   -0.2061    8.9669    1.9330 H   0  0  0  0  0  0  0  0  0  0  0  0
   -1.2335   10.3230    1.3230 H   0  0  0  0  0  0  0  0  0  0  0  0
   -1.9459    8.2853    0.2745 H   0  0  0  0  0  0  0  0  0  0  0  0
   -0.2410    6.9200    0.2960 H   0  0  0  0  0  0  0  0  0  0  0  0
   -2.6892   10.5308   -0.1174 H   0  0  0  0  0  0  0  0  0  0  0  0
   -2.3035   11.3632   -1.6618 H   0  0  0  0  0  0  0  0  0  0  0  0
   -3.3749    9.9214   -1.6618 H   0  0  0  0  0  0  0  0  0  0  0  0
   -2.0004    7.5083   -1.9801 H   0  0  0  0  0  0  0  0  0  0  0  0
   -2.4582    8.8436   -3.0910 H   0  0  0  0  0  0  0  0  0  0  0  0
   -0.7767    8.2118   -3.0910 H   0  0  0  0  0  0  0  0  0  0  0  0
    3.3205   11.1207    0.2094 H   0  0  0  0  0  0  0  0  0  0  0  0
    2.9781   10.2726   -1.3367 H   0  0  0  0  0  0  0  0  0  0  0  0
    3.9527   11.7815   -1.3367 H   0  0  0  0  0  0  0  0  0  0  0  0
    1.5680   12.9728    0.9425 H   0  0  0  0  0  0  0  0  0  0  0  0
    2.9897   13.6011   -0.0668 H   0  0  0  0  0  0  0  0  0  0  0  0
    0.0752   14.4070   -0.2764 H   0  0  0  0  0  0  0  0  0  0  0  0
    1.4864   15.4050    0.2517 H   0  0  0  0  0  0  0  0  0  0  0  0
    3.3882   15.4196   -0.9908 H   0  0  0  0  0  0  0  0  0  0  0  0
    3.4484   14.5137   -2.5408 H   0  0  0  0  0  0  0  0  0  0  0  0
    3.0698   16.2697   -2.5408 H   0  0  0  0  0  0  0  0  0  0  0  0
  1  2  1  0
  2  3  1  0
  3  4  1  0
  4  5  1  0
  5  6  1  0
  6  7  1  0
  7  8  1  0
  7  9  1  0
  2 10  1  0
 10 11  1  0
 11 12  1  0
 12 13  1  0
 13 14  1  1
 13 15  1  0
 15 16  1  0
 16 17  1  0
 17 18  2  0
 18 19  1  0
 19 20  1  0
 20 21  1  0
 21 22  1  0
 22 23  1  0
 22 24  1  0
 24 25  1  0
 24 26  1  0
 19 27  1  0
 27 28  1  6
 27 29  1  0
 29 30  1  0
 30 31  1  0
 31 32  1  1
  7  5  1  0
 31 10  1  0
 31 13  1  0
 27 15  1  0
 24 18  1  0
  1 33  1  0
  1 34  1  0
  1 35  1  0
  2 36  1  6
  3 37  1  0
  3 38  1  0
  4 39  1  0
  4 40  1  0
  5 41  1  1
  8 42  1  0
  8 43  1  0
  8 44  1  0
  9 45  1  0
  9 46  1  0
  9 47  1  0
 10 48  1  1
 11 49  1  0
 11 50  1  0
 12 51  1  0
 12 52  1  0
 14 53  1  0
 14 54  1  0
 14 55  1  0
 15 56  1  6
 16 57  1  0
 16 58  1  0
 17 59  1  0
 19 60  1  1
 20 61  1  0
 20 62  1  0
 21 63  1  0
 21 64  1  0
 22 65  1  1
 23 66  1  0
 25 67  1  0
 25 68  1  0
 25 69  1  0
 26 70  1  0
 26 71  1  0
 26 72  1  0
 28 73  1  0
 28 74  1  0
 28 75  1  0
 29 76  1  0
 29 77  1  0
 30 78  1  0
 30 79  1  0
 32 80  1  0
 32 81  1  0
 32 82  1  0
M  END
>  <meeko>  (3) 
{"is_sidechain": [false], "intermolecular_energy": 2.731, "internal_energy": -0.839}

$$$$
EPH_relaxed_0001_pdb2pqr_Repair_103_r2_0001_out
     RDKit          3D

 82 86  0  0  0  0  0  0  0  0999 V2000
    0.4530   18.3880    0.0100 C   0  0  0  0  0  0  0  0  0  0  0  0
    1.5380   17.3320   -0.2210 C   0  0  2  0  0  0  0  0  0  0  0  0
    2.7450   17.9000   -0.9940 C   0  0  0  0  0  0  0  0  0  0  0  0
    3.9800   18.1350   -0.1210 C   0  0  0  0  0  0  0  0  0  0  0  0
    3.6070   18.6020    1.2530 C   0  0  2  0  0  0  0  0  0  0  0  0
    3.8470   19.9940    1.4990 O   0  0  0  0  0  0  0  0  0  0  0  0
    4.6190   19.0690    2.2820 C   0  0  0  0  0  0  0  0  0  0  0  0
    6.0850   19.0910    1.9810 C   0  0  0  0  0  0  0  0  0  0  0  0
    4.2350   19.0380    3.7290 C   0  0  0  0  0  0  0  0  0  0  0  0
    0.9530   16.1410   -0.9710 C   0  0  1  0  0  0  0  0  0  0  0  0
    0.8170   16.4020   -2.4940 C   0  0  0  0  0  0  0  0  0  0  0  0
    1.0940   15.0530   -3.2060 C   0  0  0  0  0  0  0  0  0  0  0  0
    1.0510   13.9990   -2.0740 C   0  0  1  0  0  0  0  0  0  0  0  0
   -0.4670   13.7130   -1.8500 C   0  0  0  0  0  0  0  0  0  0  0  0
    1.8560   12.6830   -2.3250 C   0  0  2  0  0  0  0  0  0  0  0  0
    1.3740   11.8410   -3.5200 C   0  0  0  0  0  0  0  0  0  0  0  0
    0.3380   10.8150   -3.2010 C   0  0  0  0  0  0  0  0  0  0  0  0
    0.0200   10.3820   -1.9670 C   0  0  0  0  0  0  0  0  0  0  0  0
    0.8010   10.8640   -0.7380 C   0  0  1  0  0  0  0  0  0  0  0  0
    1.1540    9.6490    0.1600 C   0  0  0  0  0  0  0  0  0  0  0  0
   -0.0720    8.8220    0.5350 C   0  0  0  0  0  0  0  0  0  0  0  0
   -0.7880    8.3130   -0.7130 C   0  0  2  0  0  0  0  0  0  0  0  0
    0.0600    7.3720   -1.3790 O   0  0  0  0  0  0  0  0  0  0  0  0
   -1.1850    9.4470   -1.6980 C   0  0  0  0  0  0  0  0  0  0  0  0
   -2.3280   10.2930   -1.0850 C   0  0  0  0  0  0  0  0  0  0  0  0
   -1.7700    8.7870   -2.9760 C   0  0  0  0  0  0  0  0  0  0  0  0
    2.0580   11.7900   -1.0340 C   0  0  1  0  0  0  0  0  0  0  0  0
    3.3180   10.9090   -1.2950 C   0  0  0  0  0  0  0  0  0  0  0  0
    2.3750   12.6520    0.2450 C   0  0  0  0  0  0  0  0  0  0  0  0
    1.6370   13.9980    0.3760 C   0  0  0  0  0  0  0  0  0  0  0  0
    1.7430   14.8100   -0.9180 C   0  0  2  0  0  0  0  0  0  0  0  0
    3.2570   15.1320   -1.1580 C   0  0  0  0  0  0  0  0  0  0  0  0
    0.3053   18.5317    1.0905 H   0  0  0  0  0  0  0  0  0  0  0  0
    0.7636   19.3390   -0.4473 H   0  0  0  0  0  0  0  0  0  0  0  0
   -0.4892   18.0517   -0.4473 H   0  0  0  0  0  0  0  0  0  0  0  0
    1.9003   17.0082    0.7658 H   0  0  0  0  0  0  0  0  0  0  0  0
    3.0127   17.1899   -1.7903 H   0  0  0  0  0  0  0  0  0  0  0  0
    2.4405   18.8799   -1.3902 H   0  0  0  0  0  0  0  0  0  0  0  0
    4.5416   17.1929   -0.0370 H   0  0  0  0  0  0  0  0  0  0  0  0
    4.5909   18.9174   -0.5949 H   0  0  0  0  0  0  0  0  0  0  0  0
    2.7872   17.8703    1.3038 H   0  0  0  0  0  0  0  0  0  0  0  0
    6.6527   19.0995    2.9232 H   0  0  0  0  0  0  0  0  0  0  0  0
    6.3533   18.1968    1.3993 H   0  0  0  0  0  0  0  0  0  0  0  0
    6.3264   19.9929    1.3993 H   0  0  0  0  0  0  0  0  0  0  0  0
    5.1399   19.1111    4.3501 H   0  0  0  0  0  0  0  0  0  0  0  0
    3.5692   19.8853    3.9499 H   0  0  0  0  0  0  0  0  0  0  0  0
    3.7138   18.0949    3.9499 H   0  0  0  0  0  0  0  0  0  0  0  0
   -0.0002   16.0343   -0.4324 H   0  0  0  0  0  0  0  0  0  0  0  0
   -0.1988   16.7526   -2.7289 H   0  0  0  0  0  0  0  0  0  0  0  0
    1.5240   17.1763   -2.8265 H   0  0  0  0  0  0  0  0  0  0  0  0
    0.3201   14.8454   -3.9596 H   0  0  0  0  0  0  0  0  0  0  0  0
    2.0555   15.0527   -3.7403 H   0  0  0  0  0  0  0  0  0  0  0  0
   -0.6773   13.6734   -0.7710 H   0  0  0  0  0  0  0  0  0  0  0  0
   -1.0630   14.5147   -2.3106 H   0  0  0  0  0  0  0  0  0  0  0  0
   -0.7304   12.7494   -2.3106 H   0  0  0  0  0  0  0  0  0  0  0  0
    2.8482   13.0643   -2.6082 H   0  0  0  0  0  0  0  0  0  0  0  0
    0.9538   12.5262   -4.2710 H   0  0  0  0  0  0  0  0  0  0  0  0
    2.2541   11.2845   -3.8746 H   0  0  0  0  0  0  0  0  0  0  0  0
   -0.2122   10.3755   -4.0460 H   0  0  0  0  0  0  0  0  0  0  0  0
    0.1271   11.5448   -0.1973 H   0  0  0  0  0  0  0  0  0  0  0  0
    1.8619    9.0043   -0.3815 H   0  0  0  0  0  0  0  0  0  0  0  0
    1.5913   10.0383    1.0912 H   0  0  0  0  0  0  0  0  0  0  0  0
    0.2457    7.9626    1.1437 H   0  0  0  0  0  0  0  0  0  0  0  0
   -0.7657    9.4595    1.1028 H   0  0  0  0  0  0  0  0  0  0  0  0
   -1.7259    7.8408   -0.3853 H   0  0  0  0  0  0  0  0  0  0  0  0
    0.8810    7.8340   -1.6190 H   0  0  0  0  0  0  0  0  0  0  0  0
   -2.2687   10.2491    0.0125 H   0  0  0  0  0  0  0  0  0  0  0  0
   -2.2293   11.3374   -1.4160 H   0  0  0  0  0  0  0  0  0  0  0  0
   -3.2980    9.8935   -1.4160 H   0  0  0  0  0  0  0  0  0  0  0  0
   -2.4743    7.9924   -2.6887 H   0  0  0  0  0  0  0  0  0  0  0  0
   -2.2972    9.5463   -3.5723 H   0  0  0  0  0  0  0  0  0  0  0  0
   -0.9529    8.3548   -3.5723 H   0  0  0  0  0  0  0  0  0  0  0  0
    3.7565   10.6024   -0.3339 H   0  0  0  0  0  0  0  0  0  0  0  0
    3.0285   10.0155   -1.8676 H   0  0  0  0  0  0  0  0  0  0  0  0
    4.0578   11.4876   -1.8676 H   0  0  0  0  0  0  0  0  0  0  0  0
    2.1201   12.0455    1.1266 H   0  0  0  0  0  0  0  0  0  0  0  0
    3.4396   12.9147    0.1584 H   0  0  0  0  0  0  0  0  0  0  0  0
    0.5761   13.8068    0.5948 H   0  0  0  0  0  0  0  0  0  0  0  0
    2.1006   14.5741    1.1903 H   0  0  0  0  0  0  0  0  0  0  0  0
    3.7668   15.2404   -0.1893 H   0  0  0  0  0  0  0  0  0  0  0  0
    3.7205   14.3124   -1.7266 H   0  0  0  0  0  0  0  0  0  0  0  0
    3.3469   16.0693   -1.7266 H   0  0  0  0  0  0  0  0  0  0  0  0
  1  2  1  0
  2  3  1  0
  3  4  1  0
  4  5  1  0
  5  6  1  0
  6  7  1  0
  7  8  1  0
  7  9  1  0
  2 10  1  0
 10 11  1  0
 11 12  1  0
 12 13  1  0
 13 14  1  1
 13 15  1  0
 15 16  1  0
 16 17  1  0
 17 18  2  0
 18 19  1  0
 19 20  1  0
 20 21  1  0
 21 22  1  0
 22 23  1  0
 22 24  1  0
 24 25  1  0
 24 26  1  0
 19 27  1  0
 27 28  1  6
 27 29  1  0
 29 30  1  0
 30 31  1  0
 31 32  1  6
  7  5  1  0
 31 10  1  0
 31 13  1  0
 27 15  1  0
 24 18  1  0
  1 33  1  0
  1 34  1  0
  1 35  1  0
  2 36  1  1
  3 37  1  0
  3 38  1  0
  4 39  1  0
  4 40  1  0
  5 41  1  1
  8 42  1  0
  8 43  1  0
  8 44  1  0
  9 45  1  0
  9 46  1  0
  9 47  1  0
 10 48  1  1
 11 49  1  0
 11 50  1  0
 12 51  1  0
 12 52  1  0
 14 53  1  0
 14 54  1  0
 14 55  1  0
 15 56  1  6
 16 57  1  0
 16 58  1  0
 17 59  1  0
 19 60  1  1
 20 61  1  0
 20 62  1  0
 21 63  1  0
 21 64  1  0
 22 65  1  1
 23 66  1  0
 25 67  1  0
 25 68  1  0
 25 69  1  0
 26 70  1  0
 26 71  1  0
 26 72  1  0
 28 73  1  0
 28 74  1  0
 28 75  1  0
 29 76  1  0
 29 77  1  0
 30 78  1  0
 30 79  1  0
 32 80  1  0
 32 81  1  0
 32 82  1  0
M  END
>  <meeko>  (4) 
{"is_sidechain": [false], "intermolecular_energy": 2.731, "internal_energy": -0.839}

$$$$
EPH_relaxed_0001_pdb2pqr_Repair_103_r2_0001_out
     RDKit          3D

 82 86  0  0  0  0  0  0  0  0999 V2000
   -3.4230    9.3470    0.5220 C   0  0  0  0  0  0  0  0  0  0  0  0
   -2.5690    9.6940   -0.7010 C   0  0  2  0  0  0  0  0  0  0  0  0
   -1.8890    8.4500   -1.3070 C   0  0  0  0  0  0  0  0  0  0  0  0
   -2.7840    7.6670   -2.2700 C   0  0  0  0  0  0  0  0  0  0  0  0
   -4.2350    7.8140   -1.9230 C   0  0  2  0  0  0  0  0  0  0  0  0
   -4.8200    6.6660   -1.2950 O   0  0  0  0  0  0  0  0  0  0  0  0
   -5.3390    7.0150   -2.5890 C   0  0  0  0  0  0  0  0  0  0  0  0
   -5.0410    6.0100   -3.6560 C   0  0  0  0  0  0  0  0  0  0  0  0
   -6.7350    7.5550   -2.5510 C   0  0  0  0  0  0  0  0  0  0  0  0
   -1.5180   10.7310   -0.3230 C   0  0  1  0  0  0  0  0  0  0  0  0
   -0.4300   10.1610    0.6260 C   0  0  0  0  0  0  0  0  0  0  0  0
    0.9030   10.8550    0.2460 C   0  0  0  0  0  0  0  0  0  0  0  0
    0.4850   12.0290   -0.6700 C   0  0  1  0  0  0  0  0  0  0  0  0
    0.0300   13.1580    0.3080 C   0  0  0  0  0  0  0  0  0  0  0  0
    1.5660   12.5400   -1.6770 C   0  0  2  0  0  0  0  0  0  0  0  0
    2.8380   13.1170   -1.0310 C   0  0  0  0  0  0  0  0  0  0  0  0
    2.8050   14.5840   -0.7580 C   0  0  0  0  0  0  0  0  0  0  0  0
    1.9180   15.4560   -1.2730 C   0  0  0  0  0  0  0  0  0  0  0  0
    0.8780   15.0040   -2.3060 C   0  0  1  0  0  0  0  0  0  0  0  0
    0.8400   16.0170   -3.4800 C   0  0  0  0  0  0  0  0  0  0  0  0
    0.6100   17.4490   -3.0100 C   0  0  0  0  0  0  0  0  0  0  0  0
    1.6970   17.8820   -2.0290 C   0  0  2  0  0  0  0  0  0  0  0  0
    2.9440   17.9550   -2.7260 O   0  0  0  0  0  0  0  0  0  0  0  0
    1.8350   16.9300   -0.8080 C   0  0  0  0  0  0  0  0  0  0  0  0
    0.5980   17.0810    0.1120 C   0  0  0  0  0  0  0  0  0  0  0  0
    3.0570   17.4000    0.0280 C   0  0  0  0  0  0  0  0  0  0  0  0
    1.0030   13.4990   -2.8020 C   0  0  1  0  0  0  0  0  0  0  0  0
    1.9980   13.4140   -3.9990 C   0  0  0  0  0  0  0  0  0  0  0  0
   -0.3940   13.0210   -3.3510 C   0  0  0  0  0  0  0  0  0  0  0  0
   -1.3730   12.4170   -2.3270 C   0  0  0  0  0  0  0  0  0  0  0  0
   -0.6830   11.3490   -1.4730 C   0  0  2  0  0  0  0  0  0  0  0  0
   -0.2340   10.1900   -2.4270 C   0  0  0  0  0  0  0  0  0  0  0  0
   -2.8602    9.5757    1.4390 H   0  0  0  0  0  0  0  0  0  0  0  0
   -4.3492    9.9401    0.5027 H   0  0  0  0  0  0  0  0  0  0  0  0
   -3.6730    8.2760    0.5027 H   0  0  0  0  0  0  0  0  0  0  0  0
   -3.2409   10.1079   -1.4673 H   0  0  0  0  0  0  0  0  0  0  0  0
   -0.9923    8.7764   -1.8541 H   0  0  0  0  0  0  0  0  0  0  0  0
   -1.6490    7.7760   -0.4715 H   0  0  0  0  0  0  0  0  0  0  0  0
   -2.6221    8.0418   -3.2914 H   0  0  0  0  0  0  0  0  0  0  0  0
   -2.5197    6.6019   -2.1940 H   0  0  0  0  0  0  0  0  0  0  0  0
   -4.1079    8.8924   -1.7472 H   0  0  0  0  0  0  0  0  0  0  0  0
   -4.7576    5.0544   -3.1908 H   0  0  0  0  0  0  0  0  0  0  0  0
   -5.9342    5.8629   -4.2810 H   0  0  0  0  0  0  0  0  0  0  0  0
   -4.2120    6.3736   -4.2810 H   0  0  0  0  0  0  0  0  0  0  0  0
   -7.0523    7.6777   -1.5049 H   0  0  0  0  0  0  0  0  0  0  0  0
   -6.7651    8.5296   -3.0601 H   0  0  0  0  0  0  0  0  0  0  0  0
   -7.4132    6.8543   -3.0601 H   0  0  0  0  0  0  0  0  0  0  0  0
   -2.1679   11.4975    0.1243 H   0  0  0  0  0  0  0  0  0  0  0  0
   -0.6870   10.3815    1.6726 H   0  0  0  0  0  0  0  0  0  0  0  0
   -0.3497    9.0687    0.5239 H   0  0  0  0  0  0  0  0  0  0  0  0
    1.4167   11.2275    1.1445 H   0  0  0  0  0  0  0  0  0  0  0  0
    1.6040   10.1679   -0.2505 H   0  0  0  0  0  0  0  0  0  0  0  0
    0.1660   12.8206    1.3461 H   0  0  0  0  0  0  0  0  0  0  0  0
    0.6348   14.0601    0.1334 H   0  0  0  0  0  0  0  0  0  0  0  0
   -1.0313   13.3886    0.1334 H   0  0  0  0  0  0  0  0  0  0  0  0
    1.8793   11.6119   -2.1774 H   0  0  0  0  0  0  0  0  0  0  0  0
    2.9998   12.5969   -0.0753 H   0  0  0  0  0  0  0  0  0  0  0  0
    3.6471   12.9611   -1.7598 H   0  0  0  0  0  0  0  0  0  0  0  0
    3.5704   14.9868   -0.0783 H   0  0  0  0  0  0  0  0  0  0  0  0
   -0.0898   15.0028   -1.7832 H   0  0  0  0  0  0  0  0  0  0  0  0
    1.7996   15.9717   -4.0159 H   0  0  0  0  0  0  0  0  0  0  0  0
   -0.0016   15.7406   -4.1321 H   0  0  0  0  0  0  0  0  0  0  0  0
    0.6230   18.1204   -3.8812 H   0  0  0  0  0  0  0  0  0  0  0  0
   -0.3635   17.4994   -2.5004 H   0  0  0  0  0  0  0  0  0  0  0  0
    1.4078   18.8649   -1.6286 H   0  0  0  0  0  0  0  0  0  0  0  0
    3.5590   18.4700   -2.1760 H   0  0  0  0  0  0  0  0  0  0  0  0
    0.9166   17.0421    1.1641 H   0  0  0  0  0  0  0  0  0  0  0  0
    0.1083   18.0456   -0.0874 H   0  0  0  0  0  0  0  0  0  0  0  0
   -0.1094   16.2625   -0.0874 H   0  0  0  0  0  0  0  0  0  0  0  0
    2.8245   17.3106    1.0994 H   0  0  0  0  0  0  0  0  0  0  0  0
    3.9283   16.7728   -0.2117 H   0  0  0  0  0  0  0  0  0  0  0  0
    3.2835   18.4494   -0.2117 H   0  0  0  0  0  0  0  0  0  0  0  0
    3.0255   13.3262   -3.6162 H   0  0  0  0  0  0  0  0  0  0  0  0
    1.7589   12.5330   -4.6127 H   0  0  0  0  0  0  0  0  0  0  0  0
    1.9118   14.3228   -4.6127 H   0  0  0  0  0  0  0  0  0  0  0  0
   -0.8868   13.8911   -3.8093 H   0  0  0  0  0  0  0  0  0  0  0  0
   -0.1642   12.2013   -4.0476 H   0  0  0  0  0  0  0  0  0  0  0  0
   -1.7461   13.2170   -1.6706 H   0  0  0  0  0  0  0  0  0  0  0  0
   -2.2049   11.9469   -2.8720 H   0  0  0  0  0  0  0  0  0  0  0  0
    0.0992    9.3300   -1.8276 H   0  0  0  0  0  0  0  0  0  0  0  0
   -1.0805    9.8887   -3.0616 H   0  0  0  0  0  0  0  0  0  0  0  0
    0.5945   10.5376   -3.0616 H   0  0  0  0  0  0  0  0  0  0  0  0
  1  2  1  0
  2  3  1  0
  3  4  1  0
  4  5  1  0
  5  6  1  0
  6  7  1  0
  7  8  1  0
  7  9  1  0
  2 10  1  0
 10 11  1  0
 11 12  1  0
 12 13  1  0
 13 14  1  1
 13 15  1  0
 15 16  1  0
 16 17  1  0
 17 18  2  0
 18 19  1  0
 19 20  1  0
 20 21  1  0
 21 22  1  0
 22 23  1  0
 22 24  1  0
 24 25  1  0
 24 26  1  0
 19 27  1  0
 27 28  1  6
 27 29  1  0
 29 30  1  0
 30 31  1  0
 31 32  1  6
  7  5  1  0
 31 10  1  0
 31 13  1  0
 27 15  1  0
 24 18  1  0
  1 33  1  0
  1 34  1  0
  1 35  1  0
  2 36  1  6
  3 37  1  0
  3 38  1  0
  4 39  1  0
  4 40  1  0
  5 41  1  1
  8 42  1  0
  8 43  1  0
  8 44  1  0
  9 45  1  0
  9 46  1  0
  9 47  1  0
 10 48  1  1
 11 49  1  0
 11 50  1  0
 12 51  1  0
 12 52  1  0
 14 53  1  0
 14 54  1  0
 14 55  1  0
 15 56  1  6
 16 57  1  0
 16 58  1  0
 17 59  1  0
 19 60  1  1
 20 61  1  0
 20 62  1  0
 21 63  1  0
 21 64  1  0
 22 65  1  1
 23 66  1  0
 25 67  1  0
 25 68  1  0
 25 69  1  0
 26 70  1  0
 26 71  1  0
 26 72  1  0
 28 73  1  0
 28 74  1  0
 28 75  1  0
 29 76  1  0
 29 77  1  0
 30 78  1  0
 30 79  1  0
 32 80  1  0
 32 81  1  0
 32 82  1  0
M  END
>  <meeko>  (5) 
{"is_sidechain": [false], "intermolecular_energy": 2.731, "internal_energy": -0.839}

$$$$
EPH_relaxed_0001_pdb2pqr_Repair_103_r2_0001_out
     RDKit          3D

 82 86  0  0  0  0  0  0  0  0999 V2000
   -4.4980    6.3980   -2.8290 C   0  0  0  0  0  0  0  0  0  0  0  0
   -5.0800    7.7150   -2.3060 C   0  0  2  0  0  0  0  0  0  0  0  0
   -4.8890    7.8700   -0.7840 C   0  0  0  0  0  0  0  0  0  0  0  0
   -3.8710    8.9460   -0.3980 C   0  0  0  0  0  0  0  0  0  0  0  0
   -2.5000    8.6220   -0.9110 C   0  0  2  0  0  0  0  0  0  0  0  0
   -1.4310    8.9700   -0.0220 O   0  0  0  0  0  0  0  0  0  0  0  0
   -1.4710    9.6770   -1.2720 C   0  0  0  0  0  0  0  0  0  0  0  0
   -1.7700   11.1370   -1.1350 C   0  0  0  0  0  0  0  0  0  0  0  0
   -0.3660    9.3060   -2.2100 C   0  0  0  0  0  0  0  0  0  0  0  0
   -6.5600    7.8060   -2.6580 C   0  0  1  0  0  0  0  0  0  0  0  0
   -6.9040    7.0800   -3.9860 C   0  0  0  0  0  0  0  0  0  0  0  0
   -8.3190    6.4720   -3.8100 C   0  0  0  0  0  0  0  0  0  0  0  0
   -8.8740    7.1400   -2.5300 C   0  0  1  0  0  0  0  0  0  0  0  0
   -9.3940    8.5350   -2.9990 C   0  0  0  0  0  0  0  0  0  0  0  0
   -9.9750    6.3430   -1.7570 C   0  0  2  0  0  0  0  0  0  0  0  0
  -11.2760    6.0990   -2.5420 C   0  0  0  0  0  0  0  0  0  0  0  0
  -12.3230    7.1510   -2.3840 C   0  0  0  0  0  0  0  0  0  0  0  0
  -12.3420    8.0990   -1.4280 C   0  0  0  0  0  0  0  0  0  0  0  0
  -11.2860    8.1160   -0.3150 C   0  0  1  0  0  0  0  0  0  0  0  0
  -11.9820    8.3260    1.0560 C   0  0  0  0  0  0  0  0  0  0  0  0
  -12.8720    9.5650    1.0760 C   0  0  0  0  0  0  0  0  0  0  0  0
  -13.9450    9.4840   -0.0060 C   0  0  2  0  0  0  0  0  0  0  0  0
  -14.8450    8.4200    0.3160 O   0  0  0  0  0  0  0  0  0  0  0  0
  -13.3620    9.2640   -1.4310 C   0  0  0  0  0  0  0  0  0  0  0  0
  -12.6340   10.5470   -1.9000 C   0  0  0  0  0  0  0  0  0  0  0  0
  -14.5530    9.0590   -2.4060 C   0  0  0  0  0  0  0  0  0  0  0  0
  -10.2720    6.8930   -0.3030 C   0  0  1  0  0  0  0  0  0  0  0  0
  -10.8790    5.7060    0.5060 C   0  0  0  0  0  0  0  0  0  0  0  0
   -8.9590    7.3210    0.4540 C   0  0  0  0  0  0  0  0  0  0  0  0
   -7.8600    7.9950   -0.3880 C   0  0  0  0  0  0  0  0  0  0  0  0
   -7.5680    7.1880   -1.6570 C   0  0  2  0  0  0  0  0  0  0  0  0
   -7.0220    5.7870   -1.2170 C   0  0  0  0  0  0  0  0  0  0  0  0
   -4.2156    5.7589   -1.9794 H   0  0  0  0  0  0  0  0  0  0  0  0
   -5.2518    5.8817   -3.4416 H   0  0  0  0  0  0  0  0  0  0  0  0
   -3.6087    6.6077   -3.4416 H   0  0  0  0  0  0  0  0  0  0  0  0
   -4.5319    8.5353   -2.7925 H   0  0  0  0  0  0  0  0  0  0  0  0
   -5.8591    8.1335   -0.3373 H   0  0  0  0  0  0  0  0  0  0  0  0
   -4.5010    6.9113   -0.4094 H   0  0  0  0  0  0  0  0  0  0  0  0
   -4.1919    9.9089   -0.8221 H   0  0  0  0  0  0  0  0  0  0  0  0
   -3.8235    8.9950    0.6999 H   0  0  0  0  0  0  0  0  0  0  0  0
   -2.8853    7.7494   -1.4588 H   0  0  0  0  0  0  0  0  0  0  0  0
   -1.8242   11.4017   -0.0687 H   0  0  0  0  0  0  0  0  0  0  0  0
   -0.9729   11.7214   -1.6178 H   0  0  0  0  0  0  0  0  0  0  0  0
   -2.7327   11.3610   -1.6178 H   0  0  0  0  0  0  0  0  0  0  0  0
    0.5212    9.0081   -1.6319 H   0  0  0  0  0  0  0  0  0  0  0  0
   -0.6893    8.4671   -2.8439 H   0  0  0  0  0  0  0  0  0  0  0  0
   -0.1175   10.1700   -2.8439 H   0  0  0  0  0  0  0  0  0  0  0  0
   -6.6767    8.8995   -2.6834 H   0  0  0  0  0  0  0  0  0  0  0  0
   -6.9006    7.7961   -4.8210 H   0  0  0  0  0  0  0  0  0  0  0  0
   -6.1637    6.2984   -4.2120 H   0  0  0  0  0  0  0  0  0  0  0  0
   -8.9534    6.7073   -4.6772 H   0  0  0  0  0  0  0  0  0  0  0  0
   -8.2950    5.3751   -3.7313 H   0  0  0  0  0  0  0  0  0  0  0  0
   -9.6250    9.1547   -2.1200 H   0  0  0  0  0  0  0  0  0  0  0  0
   -8.6202    9.0304   -3.6038 H   0  0  0  0  0  0  0  0  0  0  0  0
  -10.3033    8.4030   -3.6038 H   0  0  0  0  0  0  0  0  0  0  0  0
   -9.5093    5.3538   -1.6356 H   0  0  0  0  0  0  0  0  0  0  0  0
  -11.0209    6.0310   -3.6099 H   0  0  0  0  0  0  0  0  0  0  0  0
  -11.7094    5.1745   -2.1327 H   0  0  0  0  0  0  0  0  0  0  0  0
  -13.1492    7.1519   -3.1102 H   0  0  0  0  0  0  0  0  0  0  0  0
  -10.6271    8.9692   -0.5339 H   0  0  0  0  0  0  0  0  0  0  0  0
  -12.6008    7.4436    1.2762 H   0  0  0  0  0  0  0  0  0  0  0  0
  -11.1954    8.4674    1.8118 H   0  0  0  0  0  0  0  0  0  0  0  0
  -13.3580    9.6431    2.0597 H   0  0  0  0  0  0  0  0  0  0  0  0
  -12.2466   10.4494    0.8843 H   0  0  0  0  0  0  0  0  0  0  0  0
  -14.4670   10.4520   -0.0269 H   0  0  0  0  0  0  0  0  0  0  0  0
  -15.3410    8.2000   -0.4910 H   0  0  0  0  0  0  0  0  0  0  0  0
  -12.3065   11.1242   -1.0228 H   0  0  0  0  0  0  0  0  0  0  0  0
  -11.7579   10.2710   -2.5053 H   0  0  0  0  0  0  0  0  0  0  0  0
  -13.3202   11.1575   -2.5053 H   0  0  0  0  0  0  0  0  0  0  0  0
  -15.4760    8.9001   -1.8291 H   0  0  0  0  0  0  0  0  0  0  0  0
  -14.6657    9.9510   -3.0398 H   0  0  0  0  0  0  0  0  0  0  0  0
  -14.3610    8.1807   -3.0398 H   0  0  0  0  0  0  0  0  0  0  0  0
  -10.7768    5.9059    1.5828 H   0  0  0  0  0  0  0  0  0  0  0  0
  -11.9439    5.5963    0.2529 H   0  0  0  0  0  0  0  0  0  0  0  0
  -10.3445    4.7785    0.2529 H   0  0  0  0  0  0  0  0  0  0  0  0
   -9.2476    8.0245    1.2489 H   0  0  0  0  0  0  0  0  0  0  0  0
   -8.5127    6.3807    0.8099 H   0  0  0  0  0  0  0  0  0  0  0  0
   -8.1927    9.0043   -0.6721 H   0  0  0  0  0  0  0  0  0  0  0  0
   -6.9404    8.0473    0.2133 H   0  0  0  0  0  0  0  0  0  0  0  0
   -7.0000    5.7305   -0.1187 H   0  0  0  0  0  0  0  0  0  0  0  0
   -7.6782    4.9973   -1.6117 H   0  0  0  0  0  0  0  0  0  0  0  0
   -6.0045    5.6496   -1.6117 H   0  0  0  0  0  0  0  0  0  0  0  0
  1  2  1  0
  2  3  1  0
  3  4  1  0
  4  5  1  0
  5  6  1  0
  6  7  1  0
  7  8  1  0
  7  9  1  0
  2 10  1  0
 10 11  1  0
 11 12  1  0
 12 13  1  0
 13 14  1  6
 13 15  1  0
 15 16  1  0
 16 17  1  0
 17 18  2  0
 18 19  1  0
 19 20  1  0
 20 21  1  0
 21 22  1  0
 22 23  1  0
 22 24  1  0
 24 25  1  0
 24 26  1  0
 19 27  1  0
 27 28  1  1
 27 29  1  0
 29 30  1  0
 30 31  1  0
 31 32  1  1
  7  5  1  0
 31 10  1  0
 31 13  1  0
 27 15  1  0
 24 18  1  0
  1 33  1  0
  1 34  1  0
  1 35  1  0
  2 36  1  6
  3 37  1  0
  3 38  1  0
  4 39  1  0
  4 40  1  0
  5 41  1  6
  8 42  1  0
  8 43  1  0
  8 44  1  0
  9 45  1  0
  9 46  1  0
  9 47  1  0
 10 48  1  6
 11 49  1  0
 11 50  1  0
 12 51  1  0
 12 52  1  0
 14 53  1  0
 14 54  1  0
 14 55  1  0
 15 56  1  1
 16 57  1  0
 16 58  1  0
 17 59  1  0
 19 60  1  6
 20 61  1  0
 20 62  1  0
 21 63  1  0
 21 64  1  0
 22 65  1  6
 23 66  1  0
 25 67  1  0
 25 68  1  0
 25 69  1  0
 26 70  1  0
 26 71  1  0
 26 72  1  0
 28 73  1  0
 28 74  1  0
 28 75  1  0
 29 76  1  0
 29 77  1  0
 30 78  1  0
 30 79  1  0
 32 80  1  0
 32 81  1  0
 32 82  1  0
M  END
>  <meeko>  (6) 
{"is_sidechain": [false], "intermolecular_energy": 2.731, "internal_energy": -0.839}

$$$$
EPH_relaxed_0001_pdb2pqr_Repair_103_r2_0001_out
     RDKit          3D

 82 86  0  0  0  0  0  0  0  0999 V2000
    3.9410   17.7650    0.4850 C   0  0  0  0  0  0  0  0  0  0  0  0
    2.8140   18.2660   -0.4230 C   0  0  2  0  0  0  0  0  0  0  0  0
    2.1390   19.5340    0.1350 C   0  0  0  0  0  0  0  0  0  0  0  0
    0.9010   19.2480    0.9890 C   0  0  0  0  0  0  0  0  0  0  0  0
   -0.3070   19.9710    0.4730 C   0  0  2  0  0  0  0  0  0  0  0  0
   -1.3440   20.1720    1.4430 O   0  0  0  0  0  0  0  0  0  0  0  0
   -1.6720   19.3240    0.3300 C   0  0  0  0  0  0  0  0  0  0  0  0
   -1.8990   17.8920    0.7030 C   0  0  0  0  0  0  0  0  0  0  0  0
   -2.6550   19.9310   -0.6210 C   0  0  0  0  0  0  0  0  0  0  0  0
    1.7760   17.1660   -0.6170 C   0  0  1  0  0  0  0  0  0  0  0  0
    0.5400   17.6470   -1.4230 C   0  0  0  0  0  0  0  0  0  0  0  0
    0.0690   16.4440   -2.2800 C   0  0  0  0  0  0  0  0  0  0  0  0
    0.8310   15.2290   -1.6990 C   0  0  1  0  0  0  0  0  0  0  0  0
    0.0150   14.8110   -0.4360 C   0  0  0  0  0  0  0  0  0  0  0  0
    1.0510   14.0230   -2.6690 C   0  0  2  0  0  0  0  0  0  0  0  0
   -0.2360   13.3440   -3.1690 C   0  0  0  0  0  0  0  0  0  0  0  0
   -0.7290   12.2140   -2.3270 C   0  0  0  0  0  0  0  0  0  0  0  0
   -0.0170   11.5770   -1.3780 C   0  0  0  0  0  0  0  0  0  0  0  0
    1.4600   11.9170   -1.1400 C   0  0  1  0  0  0  0  0  0  0  0  0
    2.2820   10.6060   -1.0330 C   0  0  0  0  0  0  0  0  0  0  0  0
    1.7260    9.6520    0.0190 C   0  0  0  0  0  0  0  0  0  0  0  0
    0.2740    9.2910   -0.2840 C   0  0  2  0  0  0  0  0  0  0  0  0
    0.2320    8.5220   -1.4890 O   0  0  0  0  0  0  0  0  0  0  0  0
   -0.6490   10.5340   -0.4240 C   0  0  0  0  0  0  0  0  0  0  0  0
   -0.8430   11.1970    0.9620 C   0  0  0  0  0  0  0  0  0  0  0  0
   -2.0520   10.0390   -0.8680 C   0  0  0  0  0  0  0  0  0  0  0  0
    2.1030   12.9600   -2.1530 C   0  0  1  0  0  0  0  0  0  0  0  0
    2.6400   12.2160   -3.4130 C   0  0  0  0  0  0  0  0  0  0  0  0
    3.3510   13.6350   -1.4710 C   0  0  0  0  0  0  0  0  0  0  0  0
    3.0840   14.8930   -0.6220 C   0  0  0  0  0  0  0  0  0  0  0  0
    2.2190   15.8980   -1.3900 C   0  0  2  0  0  0  0  0  0  0  0  0
    3.0240   16.3540   -2.6540 C   0  0  0  0  0  0  0  0  0  0  0  0
    3.6490   17.8948    1.5376 H   0  0  0  0  0  0  0  0  0  0  0  0
    4.1269   16.6995    0.2848 H   0  0  0  0  0  0  0  0  0  0  0  0
    4.8566   18.3409    0.2848 H   0  0  0  0  0  0  0  0  0  0  0  0
    3.2623   18.5303   -1.3921 H   0  0  0  0  0  0  0  0  0  0  0  0
    2.8710   20.0730    0.7544 H   0  0  0  0  0  0  0  0  0  0  0  0
    1.8032   20.1259   -0.7293 H   0  0  0  0  0  0  0  0  0  0  0  0
    0.7015   18.1663    0.9767 H   0  0  0  0  0  0  0  0  0  0  0  0
    1.1008   19.6001    2.0118 H   0  0  0  0  0  0  0  0  0  0  0  0
    0.3108   20.5521   -0.2274 H   0  0  0  0  0  0  0  0  0  0  0  0
   -1.9141   17.7965    1.7987 H   0  0  0  0  0  0  0  0  0  0  0  0
   -2.8619   17.5543    0.2922 H   0  0  0  0  0  0  0  0  0  0  0  0
   -1.0878   17.2731    0.2922 H   0  0  0  0  0  0  0  0  0  0  0  0
   -3.4567   20.4260   -0.0533 H   0  0  0  0  0  0  0  0  0  0  0  0
   -2.1436   20.6708   -1.2544 H   0  0  0  0  0  0  0  0  0  0  0  0
   -3.0874   19.1424   -1.2544 H   0  0  0  0  0  0  0  0  0  0  0  0
    1.5751   16.9144    0.4348 H   0  0  0  0  0  0  0  0  0  0  0  0
   -0.2610   17.9602   -0.7372 H   0  0  0  0  0  0  0  0  0  0  0  0
    0.7934   18.5089   -2.0577 H   0  0  0  0  0  0  0  0  0  0  0  0
   -1.0177   16.3020   -2.1860 H   0  0  0  0  0  0  0  0  0  0  0  0
    0.2716   16.5902   -3.3513 H   0  0  0  0  0  0  0  0  0  0  0  0
    0.5703   15.0954    0.4700 H   0  0  0  0  0  0  0  0  0  0  0  0
   -0.9597   15.3208   -0.4439 H   0  0  0  0  0  0  0  0  0  0  0  0
   -0.1407   13.7221   -0.4439 H   0  0  0  0  0  0  0  0  0  0  0  0
    1.4941   14.5080   -3.5513 H   0  0  0  0  0  0  0  0  0  0  0  0
   -1.0278   14.1063   -3.2123 H   0  0  0  0  0  0  0  0  0  0  0  0
    0.0103   12.9087   -4.1487 H   0  0  0  0  0  0  0  0  0  0  0  0
   -1.7610   11.8730   -2.4961 H   0  0  0  0  0  0  0  0  0  0  0  0
    1.4974   12.4599   -0.1840 H   0  0  0  0  0  0  0  0  0  0  0  0
    2.2685   10.1005   -2.0099 H   0  0  0  0  0  0  0  0  0  0  0  0
    3.3047   10.8765   -0.7316 H   0  0  0  0  0  0  0  0  0  0  0  0
    2.3310    8.7334    0.0274 H   0  0  0  0  0  0  0  0  0  0  0  0
    1.7667   10.1487    0.9996 H   0  0  0  0  0  0  0  0  0  0  0  0
   -0.1074    8.7115    0.5697 H   0  0  0  0  0  0  0  0  0  0  0  0
   -0.3900    8.9590   -2.0960 H   0  0  0  0  0  0  0  0  0  0  0  0
   -0.6283   10.4631    1.7528 H   0  0  0  0  0  0  0  0  0  0  0  0
   -0.1573   12.0516    1.0589 H   0  0  0  0  0  0  0  0  0  0  0  0
   -1.8813   11.5472    1.0589 H   0  0  0  0  0  0  0  0  0  0  0  0
   -2.6630    9.8234    0.0209 H   0  0  0  0  0  0  0  0  0  0  0  0
   -2.5423   10.8184   -1.4697 H   0  0  0  0  0  0  0  0  0  0  0  0
   -1.9447    9.1245   -1.4697 H   0  0  0  0  0  0  0  0  0  0  0  0
    3.2570   11.3612   -3.0989 H   0  0  0  0  0  0  0  0  0  0  0  0
    1.7927   11.8552   -4.0147 H   0  0  0  0  0  0  0  0  0  0  0  0
    3.2493   12.9065   -4.0147 H   0  0  0  0  0  0  0  0  0  0  0  0
    3.8185   12.8849   -0.8162 H   0  0  0  0  0  0  0  0  0  0  0  0
    3.9827   13.9787   -2.3034 H   0  0  0  0  0  0  0  0  0  0  0  0
    2.5623   14.6003    0.3011 H   0  0  0  0  0  0  0  0  0  0  0  0
    4.0475   15.3678   -0.3850 H   0  0  0  0  0  0  0  0  0  0  0  0
    3.9406   16.8732   -2.3373 H   0  0  0  0  0  0  0  0  0  0  0  0
    3.2910   15.4730   -3.2562 H   0  0  0  0  0  0  0  0  0  0  0  0
    2.4057   17.0360   -3.2562 H   0  0  0  0  0  0  0  0  0  0  0  0
  1  2  1  0
  2  3  1  0
  3  4  1  0
  4  5  1  0
  5  6  1  0
  6  7  1  0
  7  8  1  0
  7  9  1  0
  2 10  1  0
 10 11  1  0
 11 12  1  0
 12 13  1  0
 13 14  1  1
 13 15  1  0
 15 16  1  0
 16 17  1  0
 17 18  2  0
 18 19  1  0
 19 20  1  0
 20 21  1  0
 21 22  1  0
 22 23  1  0
 22 24  1  0
 24 25  1  0
 24 26  1  0
 19 27  1  0
 27 28  1  6
 27 29  1  0
 29 30  1  0
 30 31  1  0
 31 32  1  6
  7  5  1  0
 31 10  1  0
 31 13  1  0
 27 15  1  0
 24 18  1  0
  1 33  1  0
  1 34  1  0
  1 35  1  0
  2 36  1  6
  3 37  1  0
  3 38  1  0
  4 39  1  0
  4 40  1  0
  5 41  1  6
  8 42  1  0
  8 43  1  0
  8 44  1  0
  9 45  1  0
  9 46  1  0
  9 47  1  0
 10 48  1  1
 11 49  1  0
 11 50  1  0
 12 51  1  0
 12 52  1  0
 14 53  1  0
 14 54  1  0
 14 55  1  0
 15 56  1  6
 16 57  1  0
 16 58  1  0
 17 59  1  0
 19 60  1  1
 20 61  1  0
 20 62  1  0
 21 63  1  0
 21 64  1  0
 22 65  1  1
 23 66  1  0
 25 67  1  0
 25 68  1  0
 25 69  1  0
 26 70  1  0
 26 71  1  0
 26 72  1  0
 28 73  1  0
 28 74  1  0
 28 75  1  0
 29 76  1  0
 29 77  1  0
 30 78  1  0
 30 79  1  0
 32 80  1  0
 32 81  1  0
 32 82  1  0
M  END
>  <meeko>  (7) 
{"is_sidechain": [false], "intermolecular_energy": 2.731, "internal_energy": -0.839}

$$$$
EPH_relaxed_0001_pdb2pqr_Repair_103_r2_0001_out
     RDKit          3D

 82 86  0  0  0  0  0  0  0  0999 V2000
   -0.4030   10.1940   -2.7230 C   0  0  0  0  0  0  0  0  0  0  0  0
   -0.7970   10.2630   -1.2450 C   0  0  2  0  0  0  0  0  0  0  0  0
   -2.3220   10.1590   -1.0450 C   0  0  0  0  0  0  0  0  0  0  0  0
   -2.7720    8.8370   -0.4170 C   0  0  0  0  0  0  0  0  0  0  0  0
   -4.2650    8.7180   -0.3840 C   0  0  2  0  0  0  0  0  0  0  0  0
   -4.7550    7.4260   -0.0010 O   0  0  0  0  0  0  0  0  0  0  0  0
   -5.0560    7.8460   -1.3410 C   0  0  0  0  0  0  0  0  0  0  0  0
   -4.3780    7.0350   -2.4000 C   0  0  0  0  0  0  0  0  0  0  0  0
   -6.5030    8.1580   -1.5650 C   0  0  0  0  0  0  0  0  0  0  0  0
   -0.2780   11.5570   -0.6290 C   0  0  1  0  0  0  0  0  0  0  0  0
    0.8540   11.3140    0.4050 C   0  0  0  0  0  0  0  0  0  0  0  0
    1.8360   12.5080    0.2820 C   0  0  0  0  0  0  0  0  0  0  0  0
    1.0750   13.5520   -0.5690 C   0  0  1  0  0  0  0  0  0  0  0  0
    0.1250   14.2740    0.4380 C   0  0  0  0  0  0  0  0  0  0  0  0
    1.9560   14.5710   -1.3630 C   0  0  2  0  0  0  0  0  0  0  0  0
    2.8330   15.4900   -0.4950 C   0  0  0  0  0  0  0  0  0  0  0  0
    2.2010   16.7810   -0.0920 C   0  0  0  0  0  0  0  0  0  0  0  0
    1.0940   17.3140   -0.6420 C   0  0  0  0  0  0  0  0  0  0  0  0
    0.4150   16.6520   -1.8480 C   0  0  1  0  0  0  0  0  0  0  0  0
    0.0900   17.7290   -2.9150 C   0  0  0  0  0  0  0  0  0  0  0  0
   -0.7280   18.8860   -2.3480 C   0  0  0  0  0  0  0  0  0  0  0  0
    0.0060   19.5560   -1.1890 C   0  0  2  0  0  0  0  0  0  0  0  0
    1.1830   20.1940   -1.6960 O   0  0  0  0  0  0  0  0  0  0  0  0
    0.3940   18.5660   -0.0560 C   0  0  0  0  0  0  0  0  0  0  0  0
   -0.8810   18.1040    0.6920 C   0  0  0  0  0  0  0  0  0  0  0  0
    1.2500   19.3400    0.9820 C   0  0  0  0  0  0  0  0  0  0  0  0
    1.1670   15.3930   -2.4610 C   0  0  1  0  0  0  0  0  0  0  0  0
    2.2210   15.8610   -3.5100 C   0  0  0  0  0  0  0  0  0  0  0  0
    0.1280   14.5040   -3.2410 C   0  0  0  0  0  0  0  0  0  0  0  0
   -0.6240   13.4350   -2.4250 C   0  0  0  0  0  0  0  0  0  0  0  0
    0.3490   12.6000   -1.5880 C   0  0  2  0  0  0  0  0  0  0  0  0
    1.3030   11.8450   -2.5740 C   0  0  0  0  0  0  0  0  0  0  0  0
    0.6774   10.0048   -2.8060 H   0  0  0  0  0  0  0  0  0  0  0  0
   -0.9566    9.3791   -3.2124 H   0  0  0  0  0  0  0  0  0  0  0  0
   -0.6468   11.1485   -3.2124 H   0  0  0  0  0  0  0  0  0  0  0  0
   -0.3384    9.4003   -0.7396 H   0  0  0  0  0  0  0  0  0  0  0  0
   -2.6431   10.9819   -0.3895 H   0  0  0  0  0  0  0  0  0  0  0  0
   -2.7814   10.2135   -2.0430 H   0  0  0  0  0  0  0  0  0  0  0  0
   -2.3611    8.0043   -1.0068 H   0  0  0  0  0  0  0  0  0  0  0  0
   -2.4030    8.8068    0.6188 H   0  0  0  0  0  0  0  0  0  0  0  0
   -4.3660    9.7738   -0.0924 H   0  0  0  0  0  0  0  0  0  0  0  0
   -3.7411    6.2731   -1.9268 H   0  0  0  0  0  0  0  0  0  0  0  0
   -5.1363    6.5418   -3.0258 H   0  0  0  0  0  0  0  0  0  0  0  0
   -3.7582    7.6939   -3.0258 H   0  0  0  0  0  0  0  0  0  0  0  0
   -7.0091    8.2671   -0.5944 H   0  0  0  0  0  0  0  0  0  0  0  0
   -6.5922    9.0960   -2.1326 H   0  0  0  0  0  0  0  0  0  0  0  0
   -6.9709    7.3401   -2.1326 H   0  0  0  0  0  0  0  0  0  0  0  0
   -1.2151   11.9495   -0.2074 H   0  0  0  0  0  0  0  0  0  0  0  0
    0.4357   11.2707    1.4214 H   0  0  0  0  0  0  0  0  0  0  0  0
    1.3664   10.3598    0.2129 H   0  0  0  0  0  0  0  0  0  0  0  0
    2.0767   12.9168    1.2744 H   0  0  0  0  0  0  0  0  0  0  0  0
    2.7935   12.2158   -0.1738 H   0  0  0  0  0  0  0  0  0  0  0  0
    0.4344   14.0388    1.4670 H   0  0  0  0  0  0  0  0  0  0  0  0
    0.1791   15.3610    0.2782 H   0  0  0  0  0  0  0  0  0  0  0  0
   -0.9078   13.9308    0.2782 H   0  0  0  0  0  0  0  0  0  0  0  0
    2.6540   13.9112   -1.8993 H   0  0  0  0  0  0  0  0  0  0  0  0
    3.0981   14.9410    0.4206 H   0  0  0  0  0  0  0  0  0  0  0  0
    3.7009   15.7571   -1.1158 H   0  0  0  0  0  0  0  0  0  0  0  0
    2.6800   17.3439    0.7227 H   0  0  0  0  0  0  0  0  0  0  0  0
   -0.5181   16.2106   -1.4678 H   0  0  0  0  0  0  0  0  0  0  0  0
    1.0349   18.1271   -3.3135 H   0  0  0  0  0  0  0  0  0  0  0  0
   -0.5108   17.2492   -3.7017 H   0  0  0  0  0  0  0  0  0  0  0  0
   -0.9008   19.6278   -3.1417 H   0  0  0  0  0  0  0  0  0  0  0  0
   -1.6849   18.4908   -1.9763 H   0  0  0  0  0  0  0  0  0  0  0  0
   -0.6816   20.2892   -0.7422 H   0  0  0  0  0  0  0  0  0  0  0  0
    1.8170   19.4960   -1.9300 H   0  0  0  0  0  0  0  0  0  0  0  0
   -0.7119   18.1653    1.7772 H   0  0  0  0  0  0  0  0  0  0  0  0
   -1.7243   18.7537    0.4150 H   0  0  0  0  0  0  0  0  0  0  0  0
   -1.1123   17.0649    0.4150 H   0  0  0  0  0  0  0  0  0  0  0  0
    0.9378   19.0577    1.9983 H   0  0  0  0  0  0  0  0  0  0  0  0
    2.3118   19.0892    0.8417 H   0  0  0  0  0  0  0  0  0  0  0  0
    1.1071   20.4216    0.8417 H   0  0  0  0  0  0  0  0  0  0  0  0
    3.1067   16.2543   -2.9895 H   0  0  0  0  0  0  0  0  0  0  0  0
    2.5145   15.0086   -4.1403 H   0  0  0  0  0  0  0  0  0  0  0  0
    1.7855   16.6503   -4.1403 H   0  0  0  0  0  0  0  0  0  0  0  0
   -0.6233   15.1775   -3.6791 H   0  0  0  0  0  0  0  0  0  0  0  0
    0.7247   13.9398   -3.9729 H   0  0  0  0  0  0  0  0  0  0  0  0
   -1.3405   13.9321   -1.7546 H   0  0  0  0  0  0  0  0  0  0  0  0
   -1.1497   12.7665   -3.1227 H   0  0  0  0  0  0  0  0  0  0  0  0
    2.0384   11.2630   -1.9992 H   0  0  0  0  0  0  0  0  0  0  0  0
    0.7130   11.1666   -3.2077 H   0  0  0  0  0  0  0  0  0  0  0  0
    1.8277   12.5751   -3.2077 H   0  0  0  0  0  0  0  0  0  0  0  0
  1  2  1  0
  2  3  1  0
  3  4  1  0
  4  5  1  0
  5  6  1  0
  6  7  1  0
  7  8  1  0
  7  9  1  0
  2 10  1  0
 10 11  1  0
 11 12  1  0
 12 13  1  0
 13 14  1  1
 13 15  1  0
 15 16  1  0
 16 17  1  0
 17 18  2  0
 18 19  1  0
 19 20  1  0
 20 21  1  0
 21 22  1  0
 22 23  1  0
 22 24  1  0
 24 25  1  0
 24 26  1  0
 19 27  1  0
 27 28  1  6
 27 29  1  0
 29 30  1  0
 30 31  1  0
 31 32  1  6
  7  5  1  0
 31 10  1  0
 31 13  1  0
 27 15  1  0
 24 18  1  0
  1 33  1  0
  1 34  1  0
  1 35  1  0
  2 36  1  1
  3 37  1  0
  3 38  1  0
  4 39  1  0
  4 40  1  0
  5 41  1  1
  8 42  1  0
  8 43  1  0
  8 44  1  0
  9 45  1  0
  9 46  1  0
  9 47  1  0
 10 48  1  1
 11 49  1  0
 11 50  1  0
 12 51  1  0
 12 52  1  0
 14 53  1  0
 14 54  1  0
 14 55  1  0
 15 56  1  6
 16 57  1  0
 16 58  1  0
 17 59  1  0
 19 60  1  1
 20 61  1  0
 20 62  1  0
 21 63  1  0
 21 64  1  0
 22 65  1  1
 23 66  1  0
 25 67  1  0
 25 68  1  0
 25 69  1  0
 26 70  1  0
 26 71  1  0
 26 72  1  0
 28 73  1  0
 28 74  1  0
 28 75  1  0
 29 76  1  0
 29 77  1  0
 30 78  1  0
 30 79  1  0
 32 80  1  0
 32 81  1  0
 32 82  1  0
M  END
>  <meeko>  (8) 
{"is_sidechain": [false], "intermolecular_energy": 2.731, "internal_energy": -0.839}

$$$$
EPH_relaxed_0001_pdb2pqr_Repair_103_r2_0001_out
     RDKit          3D

 82 86  0  0  0  0  0  0  0  0999 V2000
    0.4330    8.8810   -2.5020 C   0  0  0  0  0  0  0  0  0  0  0  0
    1.1950   10.0400   -3.1490 C   0  0  2  0  0  0  0  0  0  0  0  0
    2.6880   10.0430   -2.7620 C   0  0  0  0  0  0  0  0  0  0  0  0
    3.6030   10.6230   -3.8440 C   0  0  0  0  0  0  0  0  0  0  0  0
    4.9970   10.8350   -3.3350 C   0  0  2  0  0  0  0  0  0  0  0  0
    5.6100   12.0590   -3.7620 O   0  0  0  0  0  0  0  0  0  0  0  0
    6.2210   10.8460   -4.2310 C   0  0  0  0  0  0  0  0  0  0  0  0
    6.1090   10.6400   -5.7090 C   0  0  0  0  0  0  0  0  0  0  0  0
    7.5590   10.5690   -3.6180 C   0  0  0  0  0  0  0  0  0  0  0  0
    0.5530   11.3660   -2.7590 C   0  0  1  0  0  0  0  0  0  0  0  0
   -0.8170   11.1820   -2.0530 C   0  0  0  0  0  0  0  0  0  0  0  0
   -0.9290   12.3070   -0.9920 C   0  0  0  0  0  0  0  0  0  0  0  0
    0.2130   13.2890   -1.3440 C   0  0  1  0  0  0  0  0  0  0  0  0
   -0.3510   14.1600   -2.5100 C   0  0  0  0  0  0  0  0  0  0  0  0
    0.7500   14.1730   -0.1710 C   0  0  2  0  0  0  0  0  0  0  0  0
   -0.2800   15.1370    0.4430 C   0  0  0  0  0  0  0  0  0  0  0  0
   -0.3360   16.4930   -0.1800 C   0  0  0  0  0  0  0  0  0  0  0  0
    0.5960   17.0170   -0.9970 C   0  0  0  0  0  0  0  0  0  0  0  0
    1.8980   16.2620   -1.2930 C   0  0  1  0  0  0  0  0  0  0  0  0
    3.1010   17.2330   -1.1610 C   0  0  0  0  0  0  0  0  0  0  0  0
    2.9420   18.4820   -2.0230 C   0  0  0  0  0  0  0  0  0  0  0  0
    1.6660   19.2360   -1.6590 C   0  0  2  0  0  0  0  0  0  0  0  0
    1.8010   19.7590   -0.3340 O   0  0  0  0  0  0  0  0  0  0  0  0
    0.3880   18.3560   -1.7460 C   0  0  0  0  0  0  0  0  0  0  0  0
    0.0740   18.0400   -3.2290 C   0  0  0  0  0  0  0  0  0  0  0  0
   -0.8070   19.1960   -1.2190 C   0  0  0  0  0  0  0  0  0  0  0  0
    2.1150   14.9100   -0.4870 C   0  0  1  0  0  0  0  0  0  0  0  0
    2.7860   15.2120    0.8880 C   0  0  0  0  0  0  0  0  0  0  0  0
    3.1200   13.9930   -1.2800 C   0  0  0  0  0  0  0  0  0  0  0  0
    2.5150   13.0560   -2.3420 C   0  0  0  0  0  0  0  0  0  0  0  0
    1.3320   12.2690   -1.7700 C   0  0  2  0  0  0  0  0  0  0  0  0
    1.8730   11.3680   -0.6090 C   0  0  0  0  0  0  0  0  0  0  0  0
    0.4913    8.9697   -1.4071 H   0  0  0  0  0  0  0  0  0  0  0  0
   -0.6204    8.9136   -2.8169 H   0  0  0  0  0  0  0  0  0  0  0  0
    0.8805    7.9268   -2.8169 H   0  0  0  0  0  0  0  0  0  0  0  0
    1.1377    9.9054   -4.2392 H   0  0  0  0  0  0  0  0  0  0  0  0
    2.8085   10.6422   -1.8474 H   0  0  0  0  0  0  0  0  0  0  0  0
    2.9850    8.9936   -2.6183 H   0  0  0  0  0  0  0  0  0  0  0  0
    3.6360    9.9260   -4.6944 H   0  0  0  0  0  0  0  0  0  0  0  0
    3.1972   11.5986   -4.1499 H   0  0  0  0  0  0  0  0  0  0  0  0
    4.7669   10.2913   -2.4069 H   0  0  0  0  0  0  0  0  0  0  0  0
    5.5923    9.6896   -5.9086 H   0  0  0  0  0  0  0  0  0  0  0  0
    5.5371   11.4685   -6.1524 H   0  0  0  0  0  0  0  0  0  0  0  0
    7.1152   10.6105   -6.1524 H   0  0  0  0  0  0  0  0  0  0  0  0
    7.4709   10.5872   -2.5217 H   0  0  0  0  0  0  0  0  0  0  0  0
    7.9124    9.5787   -3.9410 H   0  0  0  0  0  0  0  0  0  0  0  0
    8.2765   11.3376   -3.9410 H   0  0  0  0  0  0  0  0  0  0  0  0
    0.5041   11.8453   -3.7479 H   0  0  0  0  0  0  0  0  0  0  0  0
   -1.6343   11.2683   -2.7841 H   0  0  0  0  0  0  0  0  0  0  0  0
   -0.8895   10.1893   -1.5847 H   0  0  0  0  0  0  0  0  0  0  0  0
   -1.9062   12.8077   -1.0584 H   0  0  0  0  0  0  0  0  0  0  0  0
   -0.8468   11.9219    0.0351 H   0  0  0  0  0  0  0  0  0  0  0  0
   -0.9046   15.0149   -2.0944 H   0  0  0  0  0  0  0  0  0  0  0  0
    0.4809   14.5276   -3.1286 H   0  0  0  0  0  0  0  0  0  0  0  0
   -1.0268   13.5513   -3.1286 H   0  0  0  0  0  0  0  0  0  0  0  0
    0.9633   13.4269    0.6087 H   0  0  0  0  0  0  0  0  0  0  0  0
   -1.2748   14.6776    0.3469 H   0  0  0  0  0  0  0  0  0  0  0  0
    0.0343   15.2941    1.4854 H   0  0  0  0  0  0  0  0  0  0  0  0
   -1.2133   17.1162    0.0482 H   0  0  0  0  0  0  0  0  0  0  0  0
    1.8146   15.9088   -2.3314 H   0  0  0  0  0  0  0  0  0  0  0  0
    3.1925   17.5401   -0.1087 H   0  0  0  0  0  0  0  0  0  0  0  0
    3.9993   16.7007   -1.5069 H   0  0  0  0  0  0  0  0  0  0  0  0
    3.8078   19.1417   -1.8644 H   0  0  0  0  0  0  0  0  0  0  0  0
    2.8805   18.1757   -3.0777 H   0  0  0  0  0  0  0  0  0  0  0  0
    1.5402   20.0446   -2.3940 H   0  0  0  0  0  0  0  0  0  0  0  0
    1.9200   19.0050    0.2690 H   0  0  0  0  0  0  0  0  0  0  0  0
   -0.7005   17.2606   -3.2818 H   0  0  0  0  0  0  0  0  0  0  0  0
   -0.2874   18.9505   -3.7293 H   0  0  0  0  0  0  0  0  0  0  0  0
    0.9868   17.6844   -3.7293 H   0  0  0  0  0  0  0  0  0  0  0  0
   -0.8012   19.1919   -0.1190 H   0  0  0  0  0  0  0  0  0  0  0  0
   -0.7166   20.2303   -1.5823 H   0  0  0  0  0  0  0  0  0  0  0  0
   -1.7496   18.7608   -1.5823 H   0  0  0  0  0  0  0  0  0  0  0  0
    2.1099   14.9077    1.7006 H   0  0  0  0  0  0  0  0  0  0  0  0
    3.7293   14.6516    0.9666 H   0  0  0  0  0  0  0  0  0  0  0  0
    2.9921   16.2897    0.9666 H   0  0  0  0  0  0  0  0  0  0  0  0
    3.8406   14.6507   -1.7882 H   0  0  0  0  0  0  0  0  0  0  0  0
    3.5588   13.3256   -0.5237 H   0  0  0  0  0  0  0  0  0  0  0  0
    2.1683   13.6565   -3.1959 H   0  0  0  0  0  0  0  0  0  0  0  0
    3.2889   12.3425   -2.6614 H   0  0  0  0  0  0  0  0  0  0  0  0
    1.6039   11.8162    0.3588 H   0  0  0  0  0  0  0  0  0  0  0  0
    1.4276   10.3651   -0.6852 H   0  0  0  0  0  0  0  0  0  0  0  0
    2.9676   11.2898   -0.6852 H   0  0  0  0  0  0  0  0  0  0  0  0
  1  2  1  0
  2  3  1  0
  3  4  1  0
  4  5  1  0
  5  6  1  0
  6  7  1  0
  7  8  1  0
  7  9  1  0
  2 10  1  0
 10 11  1  0
 11 12  1  0
 12 13  1  0
 13 14  1  6
 13 15  1  0
 15 16  1  0
 16 17  1  0
 17 18  2  0
 18 19  1  0
 19 20  1  0
 20 21  1  0
 21 22  1  0
 22 23  1  0
 22 24  1  0
 24 25  1  0
 24 26  1  0
 19 27  1  0
 27 28  1  1
 27 29  1  0
 29 30  1  0
 30 31  1  0
 31 32  1  1
  7  5  1  0
 31 10  1  0
 31 13  1  0
 27 15  1  0
 24 18  1  0
  1 33  1  0
  1 34  1  0
  1 35  1  0
  2 36  1  6
  3 37  1  0
  3 38  1  0
  4 39  1  0
  4 40  1  0
  5 41  1  1
  8 42  1  0
  8 43  1  0
  8 44  1  0
  9 45  1  0
  9 46  1  0
  9 47  1  0
 10 48  1  6
 11 49  1  0
 11 50  1  0
 12 51  1  0
 12 52  1  0
 14 53  1  0
 14 54  1  0
 14 55  1  0
 15 56  1  1
 16 57  1  0
 16 58  1  0
 17 59  1  0
 19 60  1  6
 20 61  1  0
 20 62  1  0
 21 63  1  0
 21 64  1  0
 22 65  1  6
 23 66  1  0
 25 67  1  0
 25 68  1  0
 25 69  1  0
 26 70  1  0
 26 71  1  0
 26 72  1  0
 28 73  1  0
 28 74  1  0
 28 75  1  0
 29 76  1  0
 29 77  1  0
 30 78  1  0
 30 79  1  0
 32 80  1  0
 32 81  1  0
 32 82  1  0
M  END
>  <meeko>  (9) 
{"is_sidechain": [false], "intermolecular_energy": 2.731, "internal_energy": -0.839}

$$$$
EPH_relaxed_0001_pdb2pqr_Repair_103_r2_0001_out
     RDKit          3D

 82 86  0  0  0  0  0  0  0  0999 V2000
  -14.1890    5.4650    0.4080 C   0  0  0  0  0  0  0  0  0  0  0  0
  -13.6860    6.9010    0.2390 C   0  0  2  0  0  0  0  0  0  0  0  0
  -14.8360    7.8910   -0.0350 C   0  0  0  0  0  0  0  0  0  0  0  0
  -14.4500    9.3570    0.1780 C   0  0  0  0  0  0  0  0  0  0  0  0
  -15.2040   10.2680   -0.7420 C   0  0  2  0  0  0  0  0  0  0  0  0
  -15.1200    9.9210   -2.1300 O   0  0  0  0  0  0  0  0  0  0  0  0
  -14.5330   11.1770   -1.7550 C   0  0  0  0  0  0  0  0  0  0  0  0
  -13.0440   11.2210   -1.8980 C   0  0  0  0  0  0  0  0  0  0  0  0
  -15.2870   12.3690   -2.2570 C   0  0  0  0  0  0  0  0  0  0  0  0
  -12.6640    6.9640   -0.8900 C   0  0  1  0  0  0  0  0  0  0  0  0
  -13.0640    7.9690   -2.0030 C   0  0  0  0  0  0  0  0  0  0  0  0
  -11.7490    8.6000   -2.5300 C   0  0  0  0  0  0  0  0  0  0  0  0
  -10.6280    7.7080   -1.9470 C   0  0  1  0  0  0  0  0  0  0  0  0
  -10.5640    6.4710   -2.8980 C   0  0  0  0  0  0  0  0  0  0  0  0
   -9.2260    8.3800   -1.7800 C   0  0  2  0  0  0  0  0  0  0  0  0
   -8.5690    8.8510   -3.0890 C   0  0  0  0  0  0  0  0  0  0  0  0
   -7.6940    7.8460   -3.7610 C   0  0  0  0  0  0  0  0  0  0  0  0
   -7.2180    6.7210   -3.1960 C   0  0  0  0  0  0  0  0  0  0  0  0
   -7.4730    6.4150   -1.7140 C   0  0  1  0  0  0  0  0  0  0  0  0
   -6.1500    5.9580   -1.0450 C   0  0  0  0  0  0  0  0  0  0  0  0
   -5.4970    4.7900   -1.7780 C   0  0  0  0  0  0  0  0  0  0  0  0
   -5.2060    5.1530   -3.2320 C   0  0  2  0  0  0  0  0  0  0  0  0
   -4.2010    6.1710   -3.2610 O   0  0  0  0  0  0  0  0  0  0  0  0
   -6.4640    5.6380   -4.0060 C   0  0  0  0  0  0  0  0  0  0  0  0
   -7.4250    4.4450   -4.2360 C   0  0  0  0  0  0  0  0  0  0  0  0
   -6.0070    6.1050   -5.4140 C   0  0  0  0  0  0  0  0  0  0  0  0
   -8.2130    7.5540   -0.8890 C   0  0  1  0  0  0  0  0  0  0  0  0
   -7.1710    8.5740   -0.3370 C   0  0  0  0  0  0  0  0  0  0  0  0
   -8.9100    6.9080    0.3670 C   0  0  0  0  0  0  0  0  0  0  0  0
  -10.3390    6.3690    0.1680 C   0  0  0  0  0  0  0  0  0  0  0  0
  -11.2260    7.4090   -0.5240 C   0  0  2  0  0  0  0  0  0  0  0  0
  -11.3270    8.6560    0.4190 C   0  0  0  0  0  0  0  0  0  0  0  0
  -14.2716    5.2291    1.4792 H   0  0  0  0  0  0  0  0  0  0  0  0
  -15.1760    5.3640   -0.0669 H   0  0  0  0  0  0  0  0  0  0  0  0
  -13.4808    4.7701   -0.0669 H   0  0  0  0  0  0  0  0  0  0  0  0
  -13.2127    7.1994    1.1861 H   0  0  0  0  0  0  0  0  0  0  0  0
  -15.1610    7.7656   -1.0784 H   0  0  0  0  0  0  0  0  0  0  0  0
  -15.6359    7.6615    0.6843 H   0  0  0  0  0  0  0  0  0  0  0  0
  -14.6729    9.6368    1.2182 H   0  0  0  0  0  0  0  0  0  0  0  0
  -13.3766    9.4637   -0.0377 H   0  0  0  0  0  0  0  0  0  0  0  0
  -15.9633   10.4579    0.0309 H   0  0  0  0  0  0  0  0  0  0  0  0
  -12.5801   11.2347   -0.9007 H   0  0  0  0  0  0  0  0  0  0  0  0
  -12.7022   10.3326   -2.4492 H   0  0  0  0  0  0  0  0  0  0  0  0
  -12.7552   12.1281   -2.4492 H   0  0  0  0  0  0  0  0  0  0  0  0
  -15.6576   12.9548   -1.4029 H   0  0  0  0  0  0  0  0  0  0  0  0
  -14.6197   12.9941   -2.8685 H   0  0  0  0  0  0  0  0  0  0  0  0
  -16.1378   12.0339   -2.8685 H   0  0  0  0  0  0  0  0  0  0  0  0
  -12.6640    5.9078   -1.1972 H   0  0  0  0  0  0  0  0  0  0  0  0
  -13.5854    7.4446   -2.8173 H   0  0  0  0  0  0  0  0  0  0  0  0
  -13.7436    8.7408   -1.6125 H   0  0  0  0  0  0  0  0  0  0  0  0
  -11.7246    8.5855   -3.6296 H   0  0  0  0  0  0  0  0  0  0  0  0
  -11.6423    9.6532   -2.2311 H   0  0  0  0  0  0  0  0  0  0  0  0
  -10.5163    5.5498   -2.2987 H   0  0  0  0  0  0  0  0  0  0  0  0
  -11.4622    6.4495   -3.5326 H   0  0  0  0  0  0  0  0  0  0  0  0
   -9.6683    6.5423   -3.5326 H   0  0  0  0  0  0  0  0  0  0  0  0
   -9.4682    9.2957   -1.2208 H   0  0  0  0  0  0  0  0  0  0  0  0
   -9.3696    9.1278   -3.7907 H   0  0  0  0  0  0  0  0  0  0  0  0
   -7.9132    9.6906   -2.8152 H   0  0  0  0  0  0  0  0  0  0  0  0
   -7.4144    8.0413   -4.8068 H   0  0  0  0  0  0  0  0  0  0  0  0
   -8.2043    5.5935   -1.6937 H   0  0  0  0  0  0  0  0  0  0  0  0
   -5.4484    6.8052   -1.0359 H   0  0  0  0  0  0  0  0  0  0  0  0
   -6.3902    5.6205   -0.0260 H   0  0  0  0  0  0  0  0  0  0  0  0
   -4.5531    4.5320   -1.2755 H   0  0  0  0  0  0  0  0  0  0  0  0
   -6.1880    3.9343   -1.7611 H   0  0  0  0  0  0  0  0  0  0  0  0
   -4.8601    4.2391   -3.7372 H   0  0  0  0  0  0  0  0  0  0  0  0
   -4.0140    6.4260   -2.3410 H   0  0  0  0  0  0  0  0  0  0  0  0
   -7.7491    4.0427   -3.2648 H   0  0  0  0  0  0  0  0  0  0  0  0
   -8.3036    4.7860   -4.8032 H   0  0  0  0  0  0  0  0  0  0  0  0
   -6.9047    3.6592   -4.8032 H   0  0  0  0  0  0  0  0  0  0  0  0
   -5.2411    6.8877   -5.3100 H   0  0  0  0  0  0  0  0  0  0  0  0
   -5.5861    5.2510   -5.9649 H   0  0  0  0  0  0  0  0  0  0  0  0
   -6.8699    6.5073   -5.9649 H   0  0  0  0  0  0  0  0  0  0  0  0
   -7.1883    8.5570    0.7627 H   0  0  0  0  0  0  0  0  0  0  0  0
   -6.1665    8.3005   -0.6921 H   0  0  0  0  0  0  0  0  0  0  0  0
   -7.4230    9.5841   -0.6921 H   0  0  0  0  0  0  0  0  0  0  0  0
   -8.2817    6.0694    0.7016 H   0  0  0  0  0  0  0  0  0  0  0  0
   -9.0103    7.7277    1.0937 H   0  0  0  0  0  0  0  0  0  0  0  0
  -10.2981    5.4613   -0.4520 H   0  0  0  0  0  0  0  0  0  0  0  0
  -10.7689    6.1423    1.1548 H   0  0  0  0  0  0  0  0  0  0  0  0
  -11.3002    8.3256    1.4679 H   0  0  0  0  0  0  0  0  0  0  0  0
  -10.4806    9.3315    0.2256 H   0  0  0  0  0  0  0  0  0  0  0  0
  -12.2710    9.1864    0.2256 H   0  0  0  0  0  0  0  0  0  0  0  0
  1  2  1  0
  2  3  1  0
  3  4  1  0
  4  5  1  0
  5  6  1  0
  6  7  1  0
  7  8  1  0
  7  9  1  0
  2 10  1  0
 10 11  1  0
 11 12  1  0
 12 13  1  0
 13 14  1  6
 13 15  1  0
 15 16  1  0
 16 17  1  0
 17 18  2  0
 18 19  1  0
 19 20  1  0
 20 21  1  0
 21 22  1  0
 22 23  1  0
 22 24  1  0
 24 25  1  0
 24 26  1  0
 19 27  1  0
 27 28  1  1
 27 29  1  0
 29 30  1  0
 30 31  1  0
 31 32  1  1
  7  5  1  0
 31 10  1  0
 31 13  1  0
 27 15  1  0
 24 18  1  0
  1 33  1  0
  1 34  1  0
  1 35  1  0
  2 36  1  1
  3 37  1  0
  3 38  1  0
  4 39  1  0
  4 40  1  0
  5 41  1  1
  8 42  1  0
  8 43  1  0
  8 44  1  0
  9 45  1  0
  9 46  1  0
  9 47  1  0
 10 48  1  6
 11 49  1  0
 11 50  1  0
 12 51  1  0
 12 52  1  0
 14 53  1  0
 14 54  1  0
 14 55  1  0
 15 56  1  1
 16 57  1  0
 16 58  1  0
 17 59  1  0
 19 60  1  6
 20 61  1  0
 20 62  1  0
 21 63  1  0
 21 64  1  0
 22 65  1  6
 23 66  1  0
 25 67  1  0
 25 68  1  0
 25 69  1  0
 26 70  1  0
 26 71  1  0
 26 72  1  0
 28 73  1  0
 28 74  1  0
 28 75  1  0
 29 76  1  0
 29 77  1  0
 30 78  1  0
 30 79  1  0
 32 80  1  0
 32 81  1  0
 32 82  1  0
M  END
>  <meeko>  (10) 
{"is_sidechain": [false], "intermolecular_energy": 2.731, "internal_energy": -0.839}

$$$$
EPH_relaxed_0001_pdb2pqr_Repair_103_r2_0001_out
     RDKit          3D

 82 86  0  0  0  0  0  0  0  0999 V2000
   -4.2290    7.3700   -3.3230 C   0  0  0  0  0  0  0  0  0  0  0  0
   -3.8740    7.3210   -1.8350 C   0  0  2  0  0  0  0  0  0  0  0  0
   -5.0910    6.9630   -0.9590 C   0  0  0  0  0  0  0  0  0  0  0  0
   -6.0360    5.9460   -1.6050 C   0  0  0  0  0  0  0  0  0  0  0  0
   -7.4740    6.3080   -1.3840 C   0  0  2  0  0  0  0  0  0  0  0  0
   -8.4150    5.3280   -1.8410 O   0  0  0  0  0  0  0  0  0  0  0  0
   -8.4460    6.5970   -2.5130 C   0  0  0  0  0  0  0  0  0  0  0  0
   -8.0180    6.5390   -3.9460 C   0  0  0  0  0  0  0  0  0  0  0  0
   -9.6690    7.4080   -2.2140 C   0  0  0  0  0  0  0  0  0  0  0  0
   -3.2910    8.6590   -1.3950 C   0  0  1  0  0  0  0  0  0  0  0  0
   -3.8760    9.1500   -0.0440 C   0  0  0  0  0  0  0  0  0  0  0  0
   -2.7310    9.8860    0.6980 C   0  0  0  0  0  0  0  0  0  0  0  0
   -1.6350   10.0840   -0.3750 C   0  0  1  0  0  0  0  0  0  0  0  0
   -2.0870   11.3400   -1.1830 C   0  0  0  0  0  0  0  0  0  0  0  0
   -0.1710   10.2340    0.1530 C   0  0  2  0  0  0  0  0  0  0  0  0
    0.0780   11.4600    1.0480 C   0  0  0  0  0  0  0  0  0  0  0  0
    0.5080   12.6970    0.3310 C   0  0  0  0  0  0  0  0  0  0  0  0
    0.9620   12.7490   -0.9350 C   0  0  0  0  0  0  0  0  0  0  0  0
    1.1720   11.4660   -1.7500 C   0  0  1  0  0  0  0  0  0  0  0  0
    2.5530   11.5200   -2.4540 C   0  0  0  0  0  0  0  0  0  0  0  0
    2.7320   12.7810   -3.2940 C   0  0  0  0  0  0  0  0  0  0  0  0
    2.5740   14.0340   -2.4370 C   0  0  2  0  0  0  0  0  0  0  0  0
    3.6580   14.0950   -1.5060 O   0  0  0  0  0  0  0  0  0  0  0  0
    1.2230   14.0860   -1.6710 C   0  0  0  0  0  0  0  0  0  0  0  0
    0.0650   14.3230   -2.6720 C   0  0  0  0  0  0  0  0  0  0  0  0
    1.2510   15.3260   -0.7380 C   0  0  0  0  0  0  0  0  0  0  0  0
    0.9390   10.1020   -0.9680 C   0  0  1  0  0  0  0  0  0  0  0  0
    2.2520    9.6710   -0.2460 C   0  0  0  0  0  0  0  0  0  0  0  0
    0.6090    8.9650   -2.0050 C   0  0  0  0  0  0  0  0  0  0  0  0
   -0.8710    8.7880   -2.3960 C   0  0  0  0  0  0  0  0  0  0  0  0
   -1.7620    8.7240   -1.1520 C   0  0  2  0  0  0  0  0  0  0  0  0
   -1.3450    7.4570   -0.3300 C   0  0  0  0  0  0  0  0  0  0  0  0
   -5.3128    7.5196   -3.4366 H   0  0  0  0  0  0  0  0  0  0  0  0
   -3.6918    8.2025   -3.8009 H   0  0  0  0  0  0  0  0  0  0  0  0
   -3.9375    6.4231   -3.8009 H   0  0  0  0  0  0  0  0  0  0  0  0
   -3.1250    6.5268   -1.6998 H   0  0  0  0  0  0  0  0  0  0  0  0
   -4.7248    6.5432   -0.0105 H   0  0  0  0  0  0  0  0  0  0  0  0
   -5.6662    7.8893   -0.8135 H   0  0  0  0  0  0  0  0  0  0  0  0
   -5.8388    5.9129   -2.6867 H   0  0  0  0  0  0  0  0  0  0  0  0
   -5.8538    4.9653   -1.1412 H   0  0  0  0  0  0  0  0  0  0  0  0
   -7.2187    6.8632   -0.4694 H   0  0  0  0  0  0  0  0  0  0  0  0
   -6.9292    6.3914   -3.9978 H   0  0  0  0  0  0  0  0  0  0  0  0
   -8.5257    5.7015   -4.4467 H   0  0  0  0  0  0  0  0  0  0  0  0
   -8.2845    7.4815   -4.4467 H   0  0  0  0  0  0  0  0  0  0  0  0
   -9.7959    7.4921   -1.1246 H   0  0  0  0  0  0  0  0  0  0  0  0
   -9.5584    8.4123   -2.6489 H   0  0  0  0  0  0  0  0  0  0  0  0
  -10.5511    6.9153   -2.6489 H   0  0  0  0  0  0  0  0  0  0  0  0
   -3.5595    9.2726   -2.2676 H   0  0  0  0  0  0  0  0  0  0  0  0
   -4.7155    9.8380   -0.2224 H   0  0  0  0  0  0  0  0  0  0  0  0
   -4.2550    8.3068    0.5521 H   0  0  0  0  0  0  0  0  0  0  0  0
   -3.0781   10.8565    1.0823 H   0  0  0  0  0  0  0  0  0  0  0  0
   -2.3660    9.3201    1.5678 H   0  0  0  0  0  0  0  0  0  0  0  0
   -2.3751   12.1405   -0.4857 H   0  0  0  0  0  0  0  0  0  0  0  0
   -1.2572   11.6866   -1.8165 H   0  0  0  0  0  0  0  0  0  0  0  0
   -2.9474   11.0784   -1.8165 H   0  0  0  0  0  0  0  0  0  0  0  0
   -0.0671    9.3584    0.8107 H   0  0  0  0  0  0  0  0  0  0  0  0
   -0.8561   11.6850    1.5836 H   0  0  0  0  0  0  0  0  0  0  0  0
    0.9120   11.1877    1.7115 H   0  0  0  0  0  0  0  0  0  0  0  0
    0.4488   13.6460    0.8841 H   0  0  0  0  0  0  0  0  0  0  0  0
    0.3698   11.4491   -2.5024 H   0  0  0  0  0  0  0  0  0  0  0  0
    3.3411   11.4922   -1.6871 H   0  0  0  0  0  0  0  0  0  0  0  0
    2.6168   10.6556   -3.1313 H   0  0  0  0  0  0  0  0  0  0  0  0
    3.7366   12.7756   -3.7420 H   0  0  0  0  0  0  0  0  0  0  0  0
    1.9611   12.7927   -4.0786 H   0  0  0  0  0  0  0  0  0  0  0  0
    2.5833   14.9005   -3.1145 H   0  0  0  0  0  0  0  0  0  0  0  0
    3.4610   14.8040   -0.8710 H   0  0  0  0  0  0  0  0  0  0  0  0
   -0.8657   14.5135   -2.1175 H   0  0  0  0  0  0  0  0  0  0  0  0
    0.2993   15.1918   -3.3047 H   0  0  0  0  0  0  0  0  0  0  0  0
   -0.0609   13.4320   -3.3047 H   0  0  0  0  0  0  0  0  0  0  0  0
    1.2435   14.9957    0.3112 H   0  0  0  0  0  0  0  0  0  0  0  0
    2.1626   15.9103   -0.9320 H   0  0  0  0  0  0  0  0  0  0  0  0
    0.3667   15.9509   -0.9320 H   0  0  0  0  0  0  0  0  0  0  0  0
    2.1045    9.7194    0.8430 H   0  0  0  0  0  0  0  0  0  0  0  0
    2.5088    8.6414   -0.5358 H   0  0  0  0  0  0  0  0  0  0  0  0
    3.0690   10.3481   -0.5358 H   0  0  0  0  0  0  0  0  0  0  0  0
    1.1726    9.1800   -2.9249 H   0  0  0  0  0  0  0  0  0  0  0  0
    0.8874    8.0274   -1.5017 H   0  0  0  0  0  0  0  0  0  0  0  0
   -1.1831    9.6393   -3.0189 H   0  0  0  0  0  0  0  0  0  0  0  0
   -0.9767    7.8450   -2.9524 H   0  0  0  0  0  0  0  0  0  0  0  0
   -1.4175    7.6773    0.7453 H   0  0  0  0  0  0  0  0  0  0  0  0
   -2.0155    6.6213   -0.5791 H   0  0  0  0  0  0  0  0  0  0  0  0
   -0.3092    7.1829   -0.5791 H   0  0  0  0  0  0  0  0  0  0  0  0
  1  2  1  0
  2  3  1  0
  3  4  1  0
  4  5  1  0
  5  6  1  0
  6  7  1  0
  7  8  1  0
  7  9  1  0
  2 10  1  0
 10 11  1  0
 11 12  1  0
 12 13  1  0
 13 14  1  6
 13 15  1  0
 15 16  1  0
 16 17  1  0
 17 18  2  0
 18 19  1  0
 19 20  1  0
 20 21  1  0
 21 22  1  0
 22 23  1  0
 22 24  1  0
 24 25  1  0
 24 26  1  0
 19 27  1  0
 27 28  1  1
 27 29  1  0
 29 30  1  0
 30 31  1  0
 31 32  1  1
  7  5  1  0
 31 10  1  0
 31 13  1  0
 27 15  1  0
 24 18  1  0
  1 33  1  0
  1 34  1  0
  1 35  1  0
  2 36  1  6
  3 37  1  0
  3 38  1  0
  4 39  1  0
  4 40  1  0
  5 41  1  1
  8 42  1  0
  8 43  1  0
  8 44  1  0
  9 45  1  0
  9 46  1  0
  9 47  1  0
 10 48  1  6
 11 49  1  0
 11 50  1  0
 12 51  1  0
 12 52  1  0
 14 53  1  0
 14 54  1  0
 14 55  1  0
 15 56  1  1
 16 57  1  0
 16 58  1  0
 17 59  1  0
 19 60  1  6
 20 61  1  0
 20 62  1  0
 21 63  1  0
 21 64  1  0
 22 65  1  6
 23 66  1  0
 25 67  1  0
 25 68  1  0
 25 69  1  0
 26 70  1  0
 26 71  1  0
 26 72  1  0
 28 73  1  0
 28 74  1  0
 28 75  1  0
 29 76  1  0
 29 77  1  0
 30 78  1  0
 30 79  1  0
 32 80  1  0
 32 81  1  0
 32 82  1  0
M  END
>  <meeko>  (11) 
{"is_sidechain": [false], "intermolecular_energy": 2.731, "internal_energy": -0.839}

$$$$
EPH_relaxed_0001_pdb2pqr_Repair_103_r2_0001_out
     RDKit          3D

 82 86  0  0  0  0  0  0  0  0999 V2000
   -2.2280    7.8550   -2.0950 C   0  0  0  0  0  0  0  0  0  0  0  0
   -2.1910    8.4810   -0.6980 C   0  0  2  0  0  0  0  0  0  0  0  0
   -3.5780    8.4770   -0.0240 C   0  0  0  0  0  0  0  0  0  0  0  0
   -4.7440    8.5450   -1.0130 C   0  0  0  0  0  0  0  0  0  0  0  0
   -5.5310    7.2700   -1.0320 C   0  0  2  0  0  0  0  0  0  0  0  0
   -5.5920    6.6230   -2.3100 O   0  0  0  0  0  0  0  0  0  0  0  0
   -6.8390    7.1050   -1.7830 C   0  0  0  0  0  0  0  0  0  0  0  0
   -7.4360    8.2310   -2.5670 C   0  0  0  0  0  0  0  0  0  0  0  0
   -7.7750    6.0170   -1.3580 C   0  0  0  0  0  0  0  0  0  0  0  0
   -1.6560    9.9050   -0.7810 C   0  0  1  0  0  0  0  0  0  0  0  0
   -1.1970   10.4520    0.5970 C   0  0  0  0  0  0  0  0  0  0  0  0
    0.0280   11.3650    0.3300 C   0  0  0  0  0  0  0  0  0  0  0  0
    0.0290   11.5790   -1.2010 C   0  0  1  0  0  0  0  0  0  0  0  0
   -1.0230   12.7040   -1.4500 C   0  0  0  0  0  0  0  0  0  0  0  0
    1.4090   11.9250   -1.8500 C   0  0  2  0  0  0  0  0  0  0  0  0
    2.0400   13.2450   -1.3740 C   0  0  0  0  0  0  0  0  0  0  0  0
    1.6770   14.4510   -2.1770 C   0  0  0  0  0  0  0  0  0  0  0  0
    1.1110   14.4360   -3.3970 C   0  0  0  0  0  0  0  0  0  0  0  0
    0.8660   13.1150   -4.1370 C   0  0  1  0  0  0  0  0  0  0  0  0
    1.3440   13.2480   -5.6070 C   0  0  0  0  0  0  0  0  0  0  0  0
    0.7150   14.4410   -6.3210 C   0  0  0  0  0  0  0  0  0  0  0  0
    1.0290   15.7420   -5.5870 C   0  0  2  0  0  0  0  0  0  0  0  0
    2.4330   15.9980   -5.6830 O   0  0  0  0  0  0  0  0  0  0  0  0
    0.6010   15.7230   -4.0930 C   0  0  0  0  0  0  0  0  0  0  0  0
   -0.9440   15.7490   -3.9940 C   0  0  0  0  0  0  0  0  0  0  0  0
    1.1010   17.0370   -3.4360 C   0  0  0  0  0  0  0  0  0  0  0  0
    1.4300   11.8090   -3.4280 C   0  0  1  0  0  0  0  0  0  0  0  0
    2.9180   11.5820   -3.8370 C   0  0  0  0  0  0  0  0  0  0  0  0
    0.6310   10.5560   -3.9470 C   0  0  0  0  0  0  0  0  0  0  0  0
   -0.6610   10.1940   -3.1900 C   0  0  0  0  0  0  0  0  0  0  0  0
   -0.4170   10.1490   -1.6790 C   0  0  2  0  0  0  0  0  0  0  0  0
    0.6210    9.0100   -1.3960 C   0  0  0  0  0  0  0  0  0  0  0  0
   -2.2927    6.7606   -2.0048 H   0  0  0  0  0  0  0  0  0  0  0  0
   -3.1055    8.2303   -2.6419 H   0  0  0  0  0  0  0  0  0  0  0  0
   -1.3124    8.1244   -2.6419 H   0  0  0  0  0  0  0  0  0  0  0  0
   -1.5206    7.8681   -0.0776 H   0  0  0  0  0  0  0  0  0  0  0  0
   -3.6753    7.5526    0.5643 H   0  0  0  0  0  0  0  0  0  0  0  0
   -3.6339    9.3806    0.6008 H   0  0  0  0  0  0  0  0  0  0  0  0
   -5.4102    9.3706   -0.7222 H   0  0  0  0  0  0  0  0  0  0  0  0
   -4.3305    8.7072   -2.0193 H   0  0  0  0  0  0  0  0  0  0  0  0
   -5.2441    7.0500    0.0069 H   0  0  0  0  0  0  0  0  0  0  0  0
   -7.8368    8.9870   -1.8758 H   0  0  0  0  0  0  0  0  0  0  0  0
   -6.6615    8.6876   -3.2008 H   0  0  0  0  0  0  0  0  0  0  0  0
   -8.2485    7.8462   -3.2008 H   0  0  0  0  0  0  0  0  0  0  0  0
   -7.8122    5.9737   -0.2595 H   0  0  0  0  0  0  0  0  0  0  0  0
   -8.7812    6.2246   -1.7511 H   0  0  0  0  0  0  0  0  0  0  0  0
   -7.4194    5.0531   -1.7511 H   0  0  0  0  0  0  0  0  0  0  0  0
   -2.5357   10.4072   -1.2099 H   0  0  0  0  0  0  0  0  0  0  0  0
   -2.0071   11.0318    1.0634 H   0  0  0  0  0  0  0  0  0  0  0  0
   -0.9363    9.6310    1.2811 H   0  0  0  0  0  0  0  0  0  0  0  0
   -0.0811   12.3248    0.8561 H   0  0  0  0  0  0  0  0  0  0  0  0
    0.9670   10.9186    0.6893 H   0  0  0  0  0  0  0  0  0  0  0  0
   -1.3833   13.0893   -0.4847 H   0  0  0  0  0  0  0  0  0  0  0  0
   -0.5577   13.5214   -2.0204 H   0  0  0  0  0  0  0  0  0  0  0  0
   -1.8697   12.2945   -2.0204 H   0  0  0  0  0  0  0  0  0  0  0  0
    2.0596   11.1267   -1.4634 H   0  0  0  0  0  0  0  0  0  0  0  0
    1.7213   13.4193   -0.3357 H   0  0  0  0  0  0  0  0  0  0  0  0
    3.1272   13.1206   -1.4857 H   0  0  0  0  0  0  0  0  0  0  0  0
    1.8906   15.4345   -1.7331 H   0  0  0  0  0  0  0  0  0  0  0  0
   -0.2212   12.9494   -4.1119 H   0  0  0  0  0  0  0  0  0  0  0  0
    2.4372   13.3699   -5.6127 H   0  0  0  0  0  0  0  0  0  0  0  0
    1.0354   12.3378   -6.1422 H   0  0  0  0  0  0  0  0  0  0  0  0
    1.1138   14.4995   -7.3445 H   0  0  0  0  0  0  0  0  0  0  0  0
   -0.3762   14.3033   -6.3414 H   0  0  0  0  0  0  0  0  0  0  0  0
    0.4459   16.5408   -6.0685 H   0  0  0  0  0  0  0  0  0  0  0  0
    2.5560   16.7440   -6.2930 H   0  0  0  0  0  0  0  0  0  0  0  0
   -1.2436   15.7540   -2.9356 H   0  0  0  0  0  0  0  0  0  0  0  0
   -1.3279   16.6537   -4.4880 H   0  0  0  0  0  0  0  0  0  0  0  0
   -1.3581   14.8577   -4.4880 H   0  0  0  0  0  0  0  0  0  0  0  0
    1.0630   16.9371   -2.3412 H   0  0  0  0  0  0  0  0  0  0  0  0
    2.1366   17.2332   -3.7505 H   0  0  0  0  0  0  0  0  0  0  0  0
    0.4578   17.8721   -3.7505 H   0  0  0  0  0  0  0  0  0  0  0  0
    3.5366   11.4876   -2.9323 H   0  0  0  0  0  0  0  0  0  0  0  0
    2.9979   10.6613   -4.4335 H   0  0  0  0  0  0  0  0  0  0  0  0
    3.2688   12.4370   -4.4335 H   0  0  0  0  0  0  0  0  0  0  0  0
    0.3601   10.7452   -4.9962 H   0  0  0  0  0  0  0  0  0  0  0  0
    1.3048    9.7004   -3.7921 H   0  0  0  0  0  0  0  0  0  0  0  0
   -1.4296   10.9502   -3.4080 H   0  0  0  0  0  0  0  0  0  0  0  0
   -0.9944    9.1994   -3.5211 H   0  0  0  0  0  0  0  0  0  0  0  0
    0.7377    8.8819   -0.3097 H   0  0  0  0  0  0  0  0  0  0  0  0
    0.2632    8.0693   -1.8398 H   0  0  0  0  0  0  0  0  0  0  0  0
    1.5908    9.2792   -1.8398 H   0  0  0  0  0  0  0  0  0  0  0  0
  1  2  1  0
  2  3  1  0
  3  4  1  0
  4  5  1  0
  5  6  1  0
  6  7  1  0
  7  8  1  0
  7  9  1  0
  2 10  1  0
 10 11  1  0
 11 12  1  0
 12 13  1  0
 13 14  1  1
 13 15  1  0
 15 16  1  0
 16 17  1  0
 17 18  2  0
 18 19  1  0
 19 20  1  0
 20 21  1  0
 21 22  1  0
 22 23  1  0
 22 24  1  0
 24 25  1  0
 24 26  1  0
 19 27  1  0
 27 28  1  6
 27 29  1  0
 29 30  1  0
 30 31  1  0
 31 32  1  6
  7  5  1  0
 31 10  1  0
 31 13  1  0
 27 15  1  0
 24 18  1  0
  1 33  1  0
  1 34  1  0
  1 35  1  0
  2 36  1  1
  3 37  1  0
  3 38  1  0
  4 39  1  0
  4 40  1  0
  5 41  1  1
  8 42  1  0
  8 43  1  0
  8 44  1  0
  9 45  1  0
  9 46  1  0
  9 47  1  0
 10 48  1  6
 11 49  1  0
 11 50  1  0
 12 51  1  0
 12 52  1  0
 14 53  1  0
 14 54  1  0
 14 55  1  0
 15 56  1  1
 16 57  1  0
 16 58  1  0
 17 59  1  0
 19 60  1  6
 20 61  1  0
 20 62  1  0
 21 63  1  0
 21 64  1  0
 22 65  1  6
 23 66  1  0
 25 67  1  0
 25 68  1  0
 25 69  1  0
 26 70  1  0
 26 71  1  0
 26 72  1  0
 28 73  1  0
 28 74  1  0
 28 75  1  0
 29 76  1  0
 29 77  1  0
 30 78  1  0
 30 79  1  0
 32 80  1  0
 32 81  1  0
 32 82  1  0
M  END
>  <meeko>  (12) 
{"is_sidechain": [false], "intermolecular_energy": 2.731, "internal_energy": -0.839}

$$$$
EPH_relaxed_0001_pdb2pqr_Repair_103_r2_0001_out
     RDKit          3D

 82 86  0  0  0  0  0  0  0  0999 V2000
    0.1330    9.3360   -2.3230 C   0  0  0  0  0  0  0  0  0  0  0  0
    1.1700   10.3590   -2.7950 C   0  0  2  0  0  0  0  0  0  0  0  0
    2.5800    9.7460   -2.9080 C   0  0  0  0  0  0  0  0  0  0  0  0
    3.5040   10.5000   -3.8680 C   0  0  0  0  0  0  0  0  0  0  0  0
    4.8890   10.6350   -3.3130 C   0  0  2  0  0  0  0  0  0  0  0  0
    5.5300   11.8850   -3.6010 O   0  0  0  0  0  0  0  0  0  0  0  0
    6.1330   10.7160   -4.1790 C   0  0  0  0  0  0  0  0  0  0  0  0
    6.0490   10.6630   -5.6720 C   0  0  0  0  0  0  0  0  0  0  0  0
    7.4520   10.3540   -3.5710 C   0  0  0  0  0  0  0  0  0  0  0  0
    1.1940   11.5500   -1.8450 C   0  0  1  0  0  0  0  0  0  0  0  0
    2.2800   11.4150   -0.7440 C   0  0  0  0  0  0  0  0  0  0  0  0
    2.8160   12.8430   -0.4670 C   0  0  0  0  0  0  0  0  0  0  0  0
    1.8040   13.7820   -1.1640 C   0  0  1  0  0  0  0  0  0  0  0  0
    0.6120   13.8990   -0.1640 C   0  0  0  0  0  0  0  0  0  0  0  0
    2.3430   15.1870   -1.5880 C   0  0  2  0  0  0  0  0  0  0  0  0
    2.8140   16.0820   -0.4280 C   0  0  0  0  0  0  0  0  0  0  0  0
    1.7680   16.9710    0.1570 C   0  0  0  0  0  0  0  0  0  0  0  0
    0.5810   17.2590   -0.4080 C   0  0  0  0  0  0  0  0  0  0  0  0
    0.2320   16.7460   -1.8110 C   0  0  1  0  0  0  0  0  0  0  0  0
   -0.3690   17.9040   -2.6510 C   0  0  0  0  0  0  0  0  0  0  0  0
   -1.5550   18.5720   -1.9630 C   0  0  0  0  0  0  0  0  0  0  0  0
   -1.1540   19.1210   -0.5960 C   0  0  2  0  0  0  0  0  0  0  0  0
   -0.2270   20.1940   -0.7840 O   0  0  0  0  0  0  0  0  0  0  0  0
   -0.5260   18.0460    0.3360 C   0  0  0  0  0  0  0  0  0  0  0  0
   -1.6190   17.0430    0.7820 C   0  0  0  0  0  0  0  0  0  0  0  0
   -0.0380   18.7580    1.6250 C   0  0  0  0  0  0  0  0  0  0  0  0
    1.3920   15.9750   -2.5760 C   0  0  1  0  0  0  0  0  0  0  0  0
    2.2920   16.9930   -3.3430 C   0  0  0  0  0  0  0  0  0  0  0  0
    0.7540   15.0370   -3.6680 C   0  0  0  0  0  0  0  0  0  0  0  0
    0.3510   13.6200   -3.2170 C   0  0  0  0  0  0  0  0  0  0  0  0
    1.4950   12.9410   -2.4570 C   0  0  2  0  0  0  0  0  0  0  0  0
    2.7020   12.7890   -3.4440 C   0  0  0  0  0  0  0  0  0  0  0  0
    0.1123    9.3155   -1.2234 H   0  0  0  0  0  0  0  0  0  0  0  0
   -0.8599    9.6182   -2.7033 H   0  0  0  0  0  0  0  0  0  0  0  0
    0.4016    8.3394   -2.7033 H   0  0  0  0  0  0  0  0  0  0  0  0
    0.8735   10.6918   -3.8007 H   0  0  0  0  0  0  0  0  0  0  0  0
    3.0407    9.7482   -1.9091 H   0  0  0  0  0  0  0  0  0  0  0  0
    2.4573    8.7301   -3.3115 H   0  0  0  0  0  0  0  0  0  0  0  0
    3.5534    9.9511   -4.8200 H   0  0  0  0  0  0  0  0  0  0  0  0
    3.0941   11.5100   -4.0160 H   0  0  0  0  0  0  0  0  0  0  0  0
    4.6304   10.0039   -2.4499 H   0  0  0  0  0  0  0  0  0  0  0  0
    5.1533   10.0978   -5.9690 H   0  0  0  0  0  0  0  0  0  0  0  0
    5.9867   11.6857   -6.0723 H   0  0  0  0  0  0  0  0  0  0  0  0
    6.9453   10.1665   -6.0723 H   0  0  0  0  0  0  0  0  0  0  0  0
    7.3689   10.3768   -2.4744 H   0  0  0  0  0  0  0  0  0  0  0  0
    7.7405    9.3435   -3.8959 H   0  0  0  0  0  0  0  0  0  0  0  0
    8.2159   11.0757   -3.8959 H   0  0  0  0  0  0  0  0  0  0  0  0
    0.1570   11.5155   -1.4797 H   0  0  0  0  0  0  0  0  0  0  0  0
    1.8410   10.9911    0.1712 H   0  0  0  0  0  0  0  0  0  0  0  0
    3.0900   10.7451   -1.0682 H   0  0  0  0  0  0  0  0  0  0  0  0
    2.8494   13.0422    0.6143 H   0  0  0  0  0  0  0  0  0  0  0  0
    3.8410   12.9835   -0.8408 H   0  0  0  0  0  0  0  0  0  0  0  0
    0.9934   13.8616    0.8671 H   0  0  0  0  0  0  0  0  0  0  0  0
    0.0889   14.8528   -0.3271 H   0  0  0  0  0  0  0  0  0  0  0  0
   -0.0866   13.0651   -0.3271 H   0  0  0  0  0  0  0  0  0  0  0  0
    3.2499   14.9304   -2.1552 H   0  0  0  0  0  0  0  0  0  0  0  0
    3.1920   15.4295    0.3728 H   0  0  0  0  0  0  0  0  0  0  0  0
    3.5792   16.7499   -0.8505 H   0  0  0  0  0  0  0  0  0  0  0  0
    1.9856   17.4298    1.1328 H   0  0  0  0  0  0  0  0  0  0  0  0
   -0.5223   15.9582   -1.6679 H   0  0  0  0  0  0  0  0  0  0  0  0
    0.4123   18.6598   -2.8193 H   0  0  0  0  0  0  0  0  0  0  0  0
   -0.7301   17.4767   -3.5981 H   0  0  0  0  0  0  0  0  0  0  0  0
   -1.9165   19.3993   -2.5913 H   0  0  0  0  0  0  0  0  0  0  0  0
   -2.3472   17.8220   -1.8217 H   0  0  0  0  0  0  0  0  0  0  0  0
   -2.0711   19.4704   -0.0992 H   0  0  0  0  0  0  0  0  0  0  0  0
   -0.3020   20.4900   -1.7070 H   0  0  0  0  0  0  0  0  0  0  0  0
   -1.6577   17.0075    1.8807 H   0  0  0  0  0  0  0  0  0  0  0  0
   -2.5950   17.3664    0.3910 H   0  0  0  0  0  0  0  0  0  0  0  0
   -1.3805   16.0429    0.3910 H   0  0  0  0  0  0  0  0  0  0  0  0
   -0.4098   18.2155    2.5067 H   0  0  0  0  0  0  0  0  0  0  0  0
    1.0618   18.7739    1.6411 H   0  0  0  0  0  0  0  0  0  0  0  0
   -0.4199   19.7894    1.6411 H   0  0  0  0  0  0  0  0  0  0  0  0
    2.8412   17.6142   -2.6201 H   0  0  0  0  0  0  0  0  0  0  0  0
    3.0075   16.4464   -3.9748 H   0  0  0  0  0  0  0  0  0  0  0  0
    1.6618   17.6361   -3.9748 H   0  0  0  0  0  0  0  0  0  0  0  0
   -0.1503   15.5352   -4.0475 H   0  0  0  0  0  0  0  0  0  0  0  0
    1.5459   14.8865   -4.4165 H   0  0  0  0  0  0  0  0  0  0  0  0
   -0.5279   13.6880   -2.5590 H   0  0  0  0  0  0  0  0  0  0  0  0
    0.1180   13.0206   -4.1094 H   0  0  0  0  0  0  0  0  0  0  0  0
    3.6328   12.6718   -2.8696 H   0  0  0  0  0  0  0  0  0  0  0  0
    2.5481   11.9031   -4.0777 H   0  0  0  0  0  0  0  0  0  0  0  0
    2.7726   13.6853   -4.0777 H   0  0  0  0  0  0  0  0  0  0  0  0
  1  2  1  0
  2  3  1  0
  3  4  1  0
  4  5  1  0
  5  6  1  0
  6  7  1  0
  7  8  1  0
  7  9  1  0
  2 10  1  0
 10 11  1  0
 11 12  1  0
 12 13  1  0
 13 14  1  1
 13 15  1  0
 15 16  1  0
 16 17  1  0
 17 18  2  0
 18 19  1  0
 19 20  1  0
 20 21  1  0
 21 22  1  0
 22 23  1  0
 22 24  1  0
 24 25  1  0
 24 26  1  0
 19 27  1  0
 27 28  1  6
 27 29  1  0
 29 30  1  0
 30 31  1  0
 31 32  1  6
  7  5  1  0
 31 10  1  0
 31 13  1  0
 27 15  1  0
 24 18  1  0
  1 33  1  0
  1 34  1  0
  1 35  1  0
  2 36  1  6
  3 37  1  0
  3 38  1  0
  4 39  1  0
  4 40  1  0
  5 41  1  1
  8 42  1  0
  8 43  1  0
  8 44  1  0
  9 45  1  0
  9 46  1  0
  9 47  1  0
 10 48  1  1
 11 49  1  0
 11 50  1  0
 12 51  1  0
 12 52  1  0
 14 53  1  0
 14 54  1  0
 14 55  1  0
 15 56  1  6
 16 57  1  0
 16 58  1  0
 17 59  1  0
 19 60  1  1
 20 61  1  0
 20 62  1  0
 21 63  1  0
 21 64  1  0
 22 65  1  1
 23 66  1  0
 25 67  1  0
 25 68  1  0
 25 69  1  0
 26 70  1  0
 26 71  1  0
 26 72  1  0
 28 73  1  0
 28 74  1  0
 28 75  1  0
 29 76  1  0
 29 77  1  0
 30 78  1  0
 30 79  1  0
 32 80  1  0
 32 81  1  0
 32 82  1  0
M  END
>  <meeko>  (13) 
{"is_sidechain": [false], "intermolecular_energy": 2.731, "internal_energy": -0.839}

$$$$
EPH_relaxed_0001_pdb2pqr_Repair_103_r2_0001_out
     RDKit          3D

 82 86  0  0  0  0  0  0  0  0999 V2000
   -0.7740   16.3400   -5.7980 C   0  0  0  0  0  0  0  0  0  0  0  0
    0.2900   15.6160   -6.6270 C   0  0  2  0  0  0  0  0  0  0  0  0
   -0.1400   15.4390   -8.0970 C   0  0  0  0  0  0  0  0  0  0  0  0
    0.4770   16.4690   -9.0470 C   0  0  0  0  0  0  0  0  0  0  0  0
    1.8750   16.0950   -9.4370 C   0  0  2  0  0  0  0  0  0  0  0  0
    2.3230   16.6630  -10.6750 O   0  0  0  0  0  0  0  0  0  0  0  0
    2.2050   15.2310  -10.6410 C   0  0  0  0  0  0  0  0  0  0  0  0
    1.1300   14.6880  -11.5290 C   0  0  0  0  0  0  0  0  0  0  0  0
    3.5200   14.5170  -10.6700 C   0  0  0  0  0  0  0  0  0  0  0  0
    0.5960   14.2570   -6.0070 C   0  0  1  0  0  0  0  0  0  0  0  0
    1.8450   13.5820   -6.6340 C   0  0  0  0  0  0  0  0  0  0  0  0
    2.5530   12.8050   -5.4940 C   0  0  0  0  0  0  0  0  0  0  0  0
    1.5240   12.7830   -4.3400 C   0  0  1  0  0  0  0  0  0  0  0  0
    0.5470   11.6190   -4.6960 C   0  0  0  0  0  0  0  0  0  0  0  0
    2.1070   12.6260   -2.8980 C   0  0  2  0  0  0  0  0  0  0  0  0
    2.8600   11.3090   -2.6380 C   0  0  0  0  0  0  0  0  0  0  0  0
    2.0230   10.1870   -2.1180 C   0  0  0  0  0  0  0  0  0  0  0  0
    0.7860   10.3090   -1.6020 C   0  0  0  0  0  0  0  0  0  0  0  0
    0.1440   11.6890   -1.4110 C   0  0  1  0  0  0  0  0  0  0  0  0
   -0.4870   11.7750    0.0040 C   0  0  0  0  0  0  0  0  0  0  0  0
   -1.4630   10.6350    0.2790 C   0  0  0  0  0  0  0  0  0  0  0  0
   -0.7730    9.2800    0.1360 C   0  0  2  0  0  0  0  0  0  0  0  0
    0.2010    9.1470    1.1760 O   0  0  0  0  0  0  0  0  0  0  0  0
   -0.0910    9.0830   -1.2460 C   0  0  0  0  0  0  0  0  0  0  0  0
   -1.1740    8.9260   -2.3430 C   0  0  0  0  0  0  0  0  0  0  0  0
    0.6860    7.7390   -1.2080 C   0  0  0  0  0  0  0  0  0  0  0  0
    1.0710   12.9360   -1.7420 C   0  0  1  0  0  0  0  0  0  0  0  0
    1.9090   13.3260   -0.4860 C   0  0  0  0  0  0  0  0  0  0  0  0
    0.1620   14.1790   -2.0720 C   0  0  0  0  0  0  0  0  0  0  0  0
   -0.2830   14.3450   -3.5380 C   0  0  0  0  0  0  0  0  0  0  0  0
    0.9100   14.2220   -4.4900 C   0  0  2  0  0  0  0  0  0  0  0  0
    1.9000   15.3940   -4.1700 C   0  0  0  0  0  0  0  0  0  0  0  0
   -0.5645   16.1975   -4.7276 H   0  0  0  0  0  0  0  0  0  0  0  0
   -0.7557   17.4139   -6.0354 H   0  0  0  0  0  0  0  0  0  0  0  0
   -1.7663   15.9288   -6.0354 H   0  0  0  0  0  0  0  0  0  0  0  0
    1.1956   16.2404   -6.6208 H   0  0  0  0  0  0  0  0  0  0  0  0
    0.1630   14.4350   -8.4290 H   0  0  0  0  0  0  0  0  0  0  0  0
   -1.2302   15.5815   -8.1324 H   0  0  0  0  0  0  0  0  0  0  0  0
   -0.1415   16.5325   -9.9545 H   0  0  0  0  0  0  0  0  0  0  0  0
    0.5134   17.4374   -8.5265 H   0  0  0  0  0  0  0  0  0  0  0  0
    2.1796   16.0371   -8.3816 H   0  0  0  0  0  0  0  0  0  0  0  0
    0.3172   14.2775  -10.9119 H   0  0  0  0  0  0  0  0  0  0  0  0
    0.7363   15.4954  -12.1640 H   0  0  0  0  0  0  0  0  0  0  0  0
    1.5462   13.8920  -12.1640 H   0  0  0  0  0  0  0  0  0  0  0  0
    3.8598   14.3325   -9.6402 H   0  0  0  0  0  0  0  0  0  0  0  0
    3.4048   13.5576  -11.1956 H   0  0  0  0  0  0  0  0  0  0  0  0
    4.2619   15.1362  -11.1956 H   0  0  0  0  0  0  0  0  0  0  0  0
   -0.3569   13.7446   -6.2059 H   0  0  0  0  0  0  0  0  0  0  0  0
    1.5406   12.8893   -7.4324 H   0  0  0  0  0  0  0  0  0  0  0  0
    2.5172   14.3306   -7.0786 H   0  0  0  0  0  0  0  0  0  0  0  0
    2.7982   11.7819   -5.8153 H   0  0  0  0  0  0  0  0  0  0  0  0
    3.5030   13.2733   -5.1972 H   0  0  0  0  0  0  0  0  0  0  0  0
    0.1654   11.1644   -3.7699 H   0  0  0  0  0  0  0  0  0  0  0  0
   -0.2944   12.0136   -5.2845 H   0  0  0  0  0  0  0  0  0  0  0  0
    1.0815   10.8587   -5.2845 H   0  0  0  0  0  0  0  0  0  0  0  0
    2.8693   13.4183   -2.8651 H   0  0  0  0  0  0  0  0  0  0  0  0
    3.3131   10.9838   -3.5861 H   0  0  0  0  0  0  0  0  0  0  0  0
    3.5957   11.5297   -1.8506 H   0  0  0  0  0  0  0  0  0  0  0  0
    2.4537    9.1757   -2.1602 H   0  0  0  0  0  0  0  0  0  0  0  0
   -0.6426   11.7673   -2.1760 H   0  0  0  0  0  0  0  0  0  0  0  0
    0.3185   11.7380    0.7522 H   0  0  0  0  0  0  0  0  0  0  0  0
   -1.0500   12.7182    0.0620 H   0  0  0  0  0  0  0  0  0  0  0  0
   -1.8533   10.7341    1.3027 H   0  0  0  0  0  0  0  0  0  0  0  0
   -2.2831   10.6905   -0.4520 H   0  0  0  0  0  0  0  0  0  0  0  0
   -1.5489    8.5044    0.2164 H   0  0  0  0  0  0  0  0  0  0  0  0
    0.0940    9.9030    1.7780 H   0  0  0  0  0  0  0  0  0  0  0  0
   -2.1569    8.7835   -1.8701 H   0  0  0  0  0  0  0  0  0  0  0  0
   -1.1958    9.8304   -2.9688 H   0  0  0  0  0  0  0  0  0  0  0  0
   -0.9381    8.0527   -2.9688 H   0  0  0  0  0  0  0  0  0  0  0  0
    0.8568    7.4436   -0.1622 H   0  0  0  0  0  0  0  0  0  0  0  0
    0.0983    6.9611   -1.7174 H   0  0  0  0  0  0  0  0  0  0  0  0
    1.6534    7.8602   -1.7174 H   0  0  0  0  0  0  0  0  0  0  0  0
    1.3487   13.0653    0.4240 H   0  0  0  0  0  0  0  0  0  0  0  0
    2.8636   12.7796   -0.4980 H   0  0  0  0  0  0  0  0  0  0  0  0
    2.1057   14.4082   -0.4980 H   0  0  0  0  0  0  0  0  0  0  0  0
   -0.7457   14.1004   -1.4556 H   0  0  0  0  0  0  0  0  0  0  0  0
    0.7886   15.0580   -1.8602 H   0  0  0  0  0  0  0  0  0  0  0  0
   -1.0193   13.5648   -3.7811 H   0  0  0  0  0  0  0  0  0  0  0  0
   -0.7267   15.3442   -3.6589 H   0  0  0  0  0  0  0  0  0  0  0  0
    1.9950   15.5064   -3.0799 H   0  0  0  0  0  0  0  0  0  0  0  0
    2.8861   15.1695   -4.6028 H   0  0  0  0  0  0  0  0  0  0  0  0
    1.5138   16.3287   -4.6028 H   0  0  0  0  0  0  0  0  0  0  0  0
  1  2  1  0
  2  3  1  0
  3  4  1  0
  4  5  1  0
  5  6  1  0
  6  7  1  0
  7  8  1  0
  7  9  1  0
  2 10  1  0
 10 11  1  0
 11 12  1  0
 12 13  1  0
 13 14  1  6
 13 15  1  0
 15 16  1  0
 16 17  1  0
 17 18  2  0
 18 19  1  0
 19 20  1  0
 20 21  1  0
 21 22  1  0
 22 23  1  0
 22 24  1  0
 24 25  1  0
 24 26  1  0
 19 27  1  0
 27 28  1  1
 27 29  1  0
 29 30  1  0
 30 31  1  0
 31 32  1  1
  7  5  1  0
 31 10  1  0
 31 13  1  0
 27 15  1  0
 24 18  1  0
  1 33  1  0
  1 34  1  0
  1 35  1  0
  2 36  1  6
  3 37  1  0
  3 38  1  0
  4 39  1  0
  4 40  1  0
  5 41  1  1
  8 42  1  0
  8 43  1  0
  8 44  1  0
  9 45  1  0
  9 46  1  0
  9 47  1  0
 10 48  1  1
 11 49  1  0
 11 50  1  0
 12 51  1  0
 12 52  1  0
 14 53  1  0
 14 54  1  0
 14 55  1  0
 15 56  1  6
 16 57  1  0
 16 58  1  0
 17 59  1  0
 19 60  1  6
 20 61  1  0
 20 62  1  0
 21 63  1  0
 21 64  1  0
 22 65  1  1
 23 66  1  0
 25 67  1  0
 25 68  1  0
 25 69  1  0
 26 70  1  0
 26 71  1  0
 26 72  1  0
 28 73  1  0
 28 74  1  0
 28 75  1  0
 29 76  1  0
 29 77  1  0
 30 78  1  0
 30 79  1  0
 32 80  1  0
 32 81  1  0
 32 82  1  0
M  END
>  <meeko>  (14) 
{"is_sidechain": [false], "intermolecular_energy": 2.731, "internal_energy": -0.839}

$$$$
EPH_relaxed_0001_pdb2pqr_Repair_103_r2_0001_out
     RDKit          3D

 82 86  0  0  0  0  0  0  0  0999 V2000
   -0.2720   15.0930   -7.6330 C   0  0  0  0  0  0  0  0  0  0  0  0
    1.1010   15.0720   -6.9550 C   0  0  2  0  0  0  0  0  0  0  0  0
    2.2530   15.1630   -7.9740 C   0  0  0  0  0  0  0  0  0  0  0  0
    2.2840   16.4810   -8.7530 C   0  0  0  0  0  0  0  0  0  0  0  0
    1.8860   16.2880  -10.1850 C   0  0  2  0  0  0  0  0  0  0  0  0
    1.2160   15.0500  -10.4590 O   0  0  0  0  0  0  0  0  0  0  0  0
    2.4950   15.2310  -11.0880 C   0  0  0  0  0  0  0  0  0  0  0  0
    3.5540   14.2980  -10.5920 C   0  0  0  0  0  0  0  0  0  0  0  0
    2.4150   15.4240  -12.5700 C   0  0  0  0  0  0  0  0  0  0  0  0
    1.2460   13.8090   -6.1150 C   0  0  1  0  0  0  0  0  0  0  0  0
    2.6770   13.2120   -6.1770 C   0  0  0  0  0  0  0  0  0  0  0  0
    2.9720   12.6100   -4.7790 C   0  0  0  0  0  0  0  0  0  0  0  0
    1.5980   12.5820   -4.0690 C   0  0  1  0  0  0  0  0  0  0  0  0
    0.8930   11.3000   -4.6110 C   0  0  0  0  0  0  0  0  0  0  0  0
    1.6280   12.6070   -2.5060 C   0  0  2  0  0  0  0  0  0  0  0  0
    2.3180   11.4000   -1.8470 C   0  0  0  0  0  0  0  0  0  0  0  0
    1.4220   10.2480   -1.5310 C   0  0  0  0  0  0  0  0  0  0  0  0
    0.0770   10.2870   -1.5030 C   0  0  0  0  0  0  0  0  0  0  0  0
   -0.6770   11.6070   -1.7120 C   0  0  1  0  0  0  0  0  0  0  0  0
   -1.7820   11.7490   -0.6330 C   0  0  0  0  0  0  0  0  0  0  0  0
   -2.7160   10.5440   -0.5910 C   0  0  0  0  0  0  0  0  0  0  0  0
   -1.9370    9.2580   -0.3230 C   0  0  2  0  0  0  0  0  0  0  0  0
   -1.4000    9.3120    1.0020 O   0  0  0  0  0  0  0  0  0  0  0  0
   -0.7900    9.0140   -1.3430 C   0  0  0  0  0  0  0  0  0  0  0  0
   -1.3890    8.6560   -2.7250 C   0  0  0  0  0  0  0  0  0  0  0  0
    0.0040    7.7640   -0.8770 C   0  0  0  0  0  0  0  0  0  0  0  0
    0.2260   12.9090   -1.8360 C   0  0  1  0  0  0  0  0  0  0  0  0
    0.5260   13.4860   -0.4180 C   0  0  0  0  0  0  0  0  0  0  0  0
   -0.5780   14.0210   -2.6070 C   0  0  0  0  0  0  0  0  0  0  0  0
   -0.4710   14.0170   -4.1440 C   0  0  0  0  0  0  0  0  0  0  0  0
    0.9910   13.9340   -4.5910 C   0  0  2  0  0  0  0  0  0  0  0  0
    1.7220   15.2220   -4.0790 C   0  0  0  0  0  0  0  0  0  0  0  0
   -1.0598   15.1051   -6.8654 H   0  0  0  0  0  0  0  0  0  0  0  0
   -0.3575   15.9926   -8.2603 H   0  0  0  0  0  0  0  0  0  0  0  0
   -0.3849   14.1965   -8.2603 H   0  0  0  0  0  0  0  0  0  0  0  0
    1.1639   15.9585   -6.3068 H   0  0  0  0  0  0  0  0  0  0  0  0
    3.2046   15.0574   -7.4325 H   0  0  0  0  0  0  0  0  0  0  0  0
    2.0962   14.3594   -8.7086 H   0  0  0  0  0  0  0  0  0  0  0  0
    1.5874   17.1900   -8.2818 H   0  0  0  0  0  0  0  0  0  0  0  0
    3.3137   16.8674   -8.7324 H   0  0  0  0  0  0  0  0  0  0  0  0
    1.7351   17.3700  -10.3131 H   0  0  0  0  0  0  0  0  0  0  0  0
    3.5556   14.2966   -9.4920 H   0  0  0  0  0  0  0  0  0  0  0  0
    3.3488   13.2818  -10.9596 H   0  0  0  0  0  0  0  0  0  0  0  0
    4.5363   14.6296  -10.9596 H   0  0  0  0  0  0  0  0  0  0  0  0
    2.0022   16.4199  -12.7883 H   0  0  0  0  0  0  0  0  0  0  0  0
    3.4217   15.3409  -13.0055 H   0  0  0  0  0  0  0  0  0  0  0  0
    1.7623   14.6530  -13.0055 H   0  0  0  0  0  0  0  0  0  0  0  0
    0.4637   13.1893   -6.5777 H   0  0  0  0  0  0  0  0  0  0  0  0
    2.7268   12.4267   -6.9457 H   0  0  0  0  0  0  0  0  0  0  0  0
    3.4158   13.9839   -6.4383 H   0  0  0  0  0  0  0  0  0  0  0  0
    3.3817   11.5934   -4.8724 H   0  0  0  0  0  0  0  0  0  0  0  0
    3.7180   13.1953   -4.2215 H   0  0  0  0  0  0  0  0  0  0  0  0
    0.5537   10.6830   -3.7659 H   0  0  0  0  0  0  0  0  0  0  0  0
    0.0271   11.5893   -5.2246 H   0  0  0  0  0  0  0  0  0  0  0  0
    1.6011   10.7238   -5.2246 H   0  0  0  0  0  0  0  0  0  0  0  0
    2.2751   13.4714   -2.2960 H   0  0  0  0  0  0  0  0  0  0  0  0
    3.1032   11.0428   -2.5296 H   0  0  0  0  0  0  0  0  0  0  0  0
    2.7039   11.7594   -0.8817 H   0  0  0  0  0  0  0  0  0  0  0  0
    1.9022    9.2853   -1.3015 H   0  0  0  0  0  0  0  0  0  0  0  0
   -1.1362   11.5401   -2.7094 H   0  0  0  0  0  0  0  0  0  0  0  0
   -1.3023   11.8579    0.3509 H   0  0  0  0  0  0  0  0  0  0  0  0
   -2.3867   12.6317   -0.8882 H   0  0  0  0  0  0  0  0  0  0  0  0
   -3.4560   10.6900    0.2097 H   0  0  0  0  0  0  0  0  0  0  0  0
   -3.2168   10.4541   -1.5663 H   0  0  0  0  0  0  0  0  0  0  0  0
   -2.6383    8.4177   -0.4327 H   0  0  0  0  0  0  0  0  0  0  0  0
   -2.0850    8.9890    1.6110 H   0  0  0  0  0  0  0  0  0  0  0  0
   -2.3255    8.0963   -2.5848 H   0  0  0  0  0  0  0  0  0  0  0  0
   -1.5943    9.5796   -3.2860 H   0  0  0  0  0  0  0  0  0  0  0  0
   -0.6728    8.0377   -3.2860 H   0  0  0  0  0  0  0  0  0  0  0  0
    0.0246    7.7315    0.2223 H   0  0  0  0  0  0  0  0  0  0  0  0
   -0.4831    6.8558   -1.2616 H   0  0  0  0  0  0  0  0  0  0  0  0
    1.0331    7.8189   -1.2616 H   0  0  0  0  0  0  0  0  0  0  0  0
    0.1616   12.7852    0.3476 H   0  0  0  0  0  0  0  0  0  0  0  0
    1.6108   13.6255   -0.3009 H   0  0  0  0  0  0  0  0  0  0  0  0
    0.0171   14.4541   -0.3009 H   0  0  0  0  0  0  0  0  0  0  0  0
   -1.6404   13.9038   -2.3472 H   0  0  0  0  0  0  0  0  0  0  0  0
   -0.1278   14.9733   -2.2899 H   0  0  0  0  0  0  0  0  0  0  0  0
   -1.0184   13.1492   -4.5406 H   0  0  0  0  0  0  0  0  0  0  0  0
   -0.9028   14.9529   -4.5282 H   0  0  0  0  0  0  0  0  0  0  0  0
    1.7258   15.2287   -2.9790 H   0  0  0  0  0  0  0  0  0  0  0  0
    2.7578   15.2274   -4.4493 H   0  0  0  0  0  0  0  0  0  0  0  0
    1.1956   16.1141   -4.4493 H   0  0  0  0  0  0  0  0  0  0  0  0
  1  2  1  0
  2  3  1  0
  3  4  1  0
  4  5  1  0
  5  6  1  0
  6  7  1  0
  7  8  1  0
  7  9  1  0
  2 10  1  0
 10 11  1  0
 11 12  1  0
 12 13  1  0
 13 14  1  1
 13 15  1  0
 15 16  1  0
 16 17  1  0
 17 18  2  0
 18 19  1  0
 19 20  1  0
 20 21  1  0
 21 22  1  0
 22 23  1  0
 22 24  1  0
 24 25  1  0
 24 26  1  0
 19 27  1  0
 27 28  1  1
 27 29  1  0
 29 30  1  0
 30 31  1  0
 31 32  1  1
  7  5  1  0
 31 10  1  0
 31 13  1  0
 27 15  1  0
 24 18  1  0
  1 33  1  0
  1 34  1  0
  1 35  1  0
  2 36  1  1
  3 37  1  0
  3 38  1  0
  4 39  1  0
  4 40  1  0
  5 41  1  6
  8 42  1  0
  8 43  1  0
  8 44  1  0
  9 45  1  0
  9 46  1  0
  9 47  1  0
 10 48  1  6
 11 49  1  0
 11 50  1  0
 12 51  1  0
 12 52  1  0
 14 53  1  0
 14 54  1  0
 14 55  1  0
 15 56  1  6
 16 57  1  0
 16 58  1  0
 17 59  1  0
 19 60  1  6
 20 61  1  0
 20 62  1  0
 21 63  1  0
 21 64  1  0
 22 65  1  1
 23 66  1  0
 25 67  1  0
 25 68  1  0
 25 69  1  0
 26 70  1  0
 26 71  1  0
 26 72  1  0
 28 73  1  0
 28 74  1  0
 28 75  1  0
 29 76  1  0
 29 77  1  0
 30 78  1  0
 30 79  1  0
 32 80  1  0
 32 81  1  0
 32 82  1  0
M  END
>  <meeko>  (15) 
{"is_sidechain": [false], "intermolecular_energy": 2.731, "internal_energy": -0.839}

$$$$
EPH_relaxed_0001_pdb2pqr_Repair_103_r2_0001_out
     RDKit          3D

 82 86  0  0  0  0  0  0  0  0999 V2000
    2.2810   11.1030   -5.4100 C   0  0  0  0  0  0  0  0  0  0  0  0
    1.6550   10.9770   -4.0190 C   0  0  2  0  0  0  0  0  0  0  0  0
    0.5280    9.9260   -3.9820 C   0  0  0  0  0  0  0  0  0  0  0  0
    0.3990    9.2080   -2.6360 C   0  0  0  0  0  0  0  0  0  0  0  0
   -1.0290    9.1160   -2.1910 C   0  0  2  0  0  0  0  0  0  0  0  0
   -1.6250   10.3680   -1.8270 O   0  0  0  0  0  0  0  0  0  0  0  0
   -1.4830    9.4030   -0.7720 C   0  0  0  0  0  0  0  0  0  0  0  0
   -0.5110    9.8040    0.2930 C   0  0  0  0  0  0  0  0  0  0  0  0
   -2.7830    8.8240   -0.3060 C   0  0  0  0  0  0  0  0  0  0  0  0
    1.1200   12.3300   -3.5660 C   0  0  1  0  0  0  0  0  0  0  0  0
   -0.4210   12.3340   -3.3870 C   0  0  0  0  0  0  0  0  0  0  0  0
   -0.7310   13.2740   -2.1940 C   0  0  0  0  0  0  0  0  0  0  0  0
    0.5930   14.0310   -1.9390 C   0  0  1  0  0  0  0  0  0  0  0  0
    0.6100   15.1770   -2.9990 C   0  0  0  0  0  0  0  0  0  0  0  0
    0.8070   14.5800   -0.4910 C   0  0  2  0  0  0  0  0  0  0  0  0
   -0.2180   15.6320   -0.0340 C   0  0  0  0  0  0  0  0  0  0  0  0
    0.1490   17.0500   -0.3240 C   0  0  0  0  0  0  0  0  0  0  0  0
    1.3760   17.4850   -0.6680 C   0  0  0  0  0  0  0  0  0  0  0  0
    2.5720   16.5250   -0.6980 C   0  0  1  0  0  0  0  0  0  0  0  0
    3.7810   17.1820    0.0190 C   0  0  0  0  0  0  0  0  0  0  0  0
    4.1220   18.5570   -0.5480 C   0  0  0  0  0  0  0  0  0  0  0  0
    2.9260   19.5000   -0.4470 C   0  0  2  0  0  0  0  0  0  0  0  0
    2.6620   19.7630    0.9350 O   0  0  0  0  0  0  0  0  0  0  0  0
    1.6450   18.9400   -1.1260 C   0  0  0  0  0  0  0  0  0  0  0  0
    1.8290   18.9390   -2.6640 C   0  0  0  0  0  0  0  0  0  0  0  0
    0.4790   19.9210   -0.8300 C   0  0  0  0  0  0  0  0  0  0  0  0
    2.2890   15.0470   -0.1870 C   0  0  1  0  0  0  0  0  0  0  0  0
    2.4700   14.9750    1.3600 C   0  0  0  0  0  0  0  0  0  0  0  0
    3.3610   14.0750   -0.8060 C   0  0  0  0  0  0  0  0  0  0  0  0
    3.0370   13.4700   -2.1860 C   0  0  0  0  0  0  0  0  0  0  0  0
    1.6260   12.8760   -2.2060 C   0  0  2  0  0  0  0  0  0  0  0  0
    1.5840   11.7060   -1.1660 C   0  0  0  0  0  0  0  0  0  0  0  0
    3.3550   11.3192   -5.3106 H   0  0  0  0  0  0  0  0  0  0  0  0
    2.1462   10.1597   -5.9596 H   0  0  0  0  0  0  0  0  0  0  0  0
    1.7917   11.9207   -5.9596 H   0  0  0  0  0  0  0  0  0  0  0  0
    2.4437   10.6391   -3.3307 H   0  0  0  0  0  0  0  0  0  0  0  0
   -0.4249   10.4310   -4.1988 H   0  0  0  0  0  0  0  0  0  0  0  0
    0.7779    9.1607   -4.7316 H   0  0  0  0  0  0  0  0  0  0  0  0
    0.8081    8.1916   -2.7336 H   0  0  0  0  0  0  0  0  0  0  0  0
    0.9557    9.7867   -1.8842 H   0  0  0  0  0  0  0  0  0  0  0  0
   -1.2090    8.2661   -2.8657 H   0  0  0  0  0  0  0  0  0  0  0  0
   -0.9551    9.6208    1.2826 H   0  0  0  0  0  0  0  0  0  0  0  0
    0.4108    9.2127    0.1896 H   0  0  0  0  0  0  0  0  0  0  0  0
   -0.2743   10.8732    0.1896 H   0  0  0  0  0  0  0  0  0  0  0  0
   -2.8065    8.8135    0.7937 H   0  0  0  0  0  0  0  0  0  0  0  0
   -3.6141    9.4370   -0.6847 H   0  0  0  0  0  0  0  0  0  0  0  0
   -2.8833    7.7961   -0.6847 H   0  0  0  0  0  0  0  0  0  0  0  0
    1.4930   12.9597   -4.3872 H   0  0  0  0  0  0  0  0  0  0  0  0
   -0.9073   12.7080   -4.3000 H   0  0  0  0  0  0  0  0  0  0  0  0
   -0.7990   11.3184   -3.1978 H   0  0  0  0  0  0  0  0  0  0  0  0
   -1.5365   13.9770   -2.4527 H   0  0  0  0  0  0  0  0  0  0  0  0
   -1.0734   12.7220   -1.3062 H   0  0  0  0  0  0  0  0  0  0  0  0
    0.6244   16.1502   -2.4866 H   0  0  0  0  0  0  0  0  0  0  0  0
    1.5068   15.0808   -3.6287 H   0  0  0  0  0  0  0  0  0  0  0  0
   -0.2893   15.1074   -3.6287 H   0  0  0  0  0  0  0  0  0  0  0  0
    0.6189   13.6906    0.1284 H   0  0  0  0  0  0  0  0  0  0  0  0
   -1.1720   15.4182   -0.5382 H   0  0  0  0  0  0  0  0  0  0  0  0
   -0.2698   15.5497    1.0617 H   0  0  0  0  0  0  0  0  0  0  0  0
   -0.6500   17.8024   -0.2504 H   0  0  0  0  0  0  0  0  0  0  0  0
    2.8083   16.3672   -1.7607 H   0  0  0  0  0  0  0  0  0  0  0  0
    3.5409   17.2908    1.0869 H   0  0  0  0  0  0  0  0  0  0  0  0
    4.6544   16.5314   -0.1358 H   0  0  0  0  0  0  0  0  0  0  0  0
    4.9640   18.9814    0.0185 H   0  0  0  0  0  0  0  0  0  0  0  0
    4.3909   18.4429   -1.6085 H   0  0  0  0  0  0  0  0  0  0  0  0
    3.1876   20.4233   -0.9846 H   0  0  0  0  0  0  0  0  0  0  0  0
    3.3980   20.2960    1.2790 H   0  0  0  0  0  0  0  0  0  0  0  0
    2.9023   18.9332   -2.9049 H   0  0  0  0  0  0  0  0  0  0  0  0
    1.3528   18.0434   -3.0897 H   0  0  0  0  0  0  0  0  0  0  0  0
    1.3626   19.8397   -3.0897 H   0  0  0  0  0  0  0  0  0  0  0  0
    0.3549   20.0254    0.2580 H   0  0  0  0  0  0  0  0  0  0  0  0
    0.7061   20.9036   -1.2691 H   0  0  0  0  0  0  0  0  0  0  0  0
   -0.4503   19.5291   -1.2691 H   0  0  0  0  0  0  0  0  0  0  0  0
    1.5565   15.3384    1.8534 H   0  0  0  0  0  0  0  0  0  0  0  0
    2.6586   13.9334    1.6590 H   0  0  0  0  0  0  0  0  0  0  0  0
    3.3226   15.6024    1.6590 H   0  0  0  0  0  0  0  0  0  0  0  0
    4.3026   14.6356   -0.9014 H   0  0  0  0  0  0  0  0  0  0  0  0
    3.4023   13.2172   -0.1186 H   0  0  0  0  0  0  0  0  0  0  0  0
    3.1064   14.2584   -2.9499 H   0  0  0  0  0  0  0  0  0  0  0  0
    3.7588   12.6668   -2.3952 H   0  0  0  0  0  0  0  0  0  0  0  0
    1.5989   12.1204   -0.1471 H   0  0  0  0  0  0  0  0  0  0  0  0
    0.6642   11.1201   -1.3102 H   0  0  0  0  0  0  0  0  0  0  0  0
    2.4594   11.0557   -1.3102 H   0  0  0  0  0  0  0  0  0  0  0  0
  1  2  1  0
  2  3  1  0
  3  4  1  0
  4  5  1  0
  5  6  1  0
  6  7  1  0
  7  8  1  0
  7  9  1  0
  2 10  1  0
 10 11  1  0
 11 12  1  0
 12 13  1  0
 13 14  1  6
 13 15  1  0
 15 16  1  0
 16 17  1  0
 17 18  2  0
 18 19  1  0
 19 20  1  0
 20 21  1  0
 21 22  1  0
 22 23  1  0
 22 24  1  0
 24 25  1  0
 24 26  1  0
 19 27  1  0
 27 28  1  1
 27 29  1  0
 29 30  1  0
 30 31  1  0
 31 32  1  1
  7  5  1  0
 31 10  1  0
 31 13  1  0
 27 15  1  0
 24 18  1  0
  1 33  1  0
  1 34  1  0
  1 35  1  0
  2 36  1  1
  3 37  1  0
  3 38  1  0
  4 39  1  0
  4 40  1  0
  5 41  1  6
  8 42  1  0
  8 43  1  0
  8 44  1  0
  9 45  1  0
  9 46  1  0
  9 47  1  0
 10 48  1  6
 11 49  1  0
 11 50  1  0
 12 51  1  0
 12 52  1  0
 14 53  1  0
 14 54  1  0
 14 55  1  0
 15 56  1  1
 16 57  1  0
 16 58  1  0
 17 59  1  0
 19 60  1  6
 20 61  1  0
 20 62  1  0
 21 63  1  0
 21 64  1  0
 22 65  1  6
 23 66  1  0
 25 67  1  0
 25 68  1  0
 25 69  1  0
 26 70  1  0
 26 71  1  0
 26 72  1  0
 28 73  1  0
 28 74  1  0
 28 75  1  0
 29 76  1  0
 29 77  1  0
 30 78  1  0
 30 79  1  0
 32 80  1  0
 32 81  1  0
 32 82  1  0
M  END
>  <meeko>  (16) 
{"is_sidechain": [false], "intermolecular_energy": 2.731, "internal_energy": -0.839}

$$$$
EPH_relaxed_0001_pdb2pqr_Repair_103_r2_0001_out
     RDKit          3D

 82 86  0  0  0  0  0  0  0  0999 V2000
    0.8940   14.9080   -2.5740 C   0  0  0  0  0  0  0  0  0  0  0  0
    1.1900   14.2330   -3.9160 C   0  0  2  0  0  0  0  0  0  0  0  0
    0.5170   14.9640   -5.0950 C   0  0  0  0  0  0  0  0  0  0  0  0
    1.1210   14.6210   -6.4590 C   0  0  0  0  0  0  0  0  0  0  0  0
    0.8610   15.6980   -7.4680 C   0  0  2  0  0  0  0  0  0  0  0  0
    0.4080   15.2260   -8.7440 O   0  0  0  0  0  0  0  0  0  0  0  0
    1.6870   15.8810   -8.7270 C   0  0  0  0  0  0  0  0  0  0  0  0
    2.8370   14.9780   -9.0450 C   0  0  0  0  0  0  0  0  0  0  0  0
    1.6860   17.2210   -9.3950 C   0  0  0  0  0  0  0  0  0  0  0  0
    0.7360   12.7790   -3.8780 C   0  0  1  0  0  0  0  0  0  0  0  0
    1.8670   11.7900   -4.2670 C   0  0  0  0  0  0  0  0  0  0  0  0
    1.6630   10.5160   -3.4070 C   0  0  0  0  0  0  0  0  0  0  0  0
    0.2490   10.6760   -2.8020 C   0  0  1  0  0  0  0  0  0  0  0  0
   -0.7250   10.2210   -3.9330 C   0  0  0  0  0  0  0  0  0  0  0  0
   -0.0210    9.9120   -1.4650 C   0  0  2  0  0  0  0  0  0  0  0  0
    0.0810    8.3800   -1.5570 C   0  0  0  0  0  0  0  0  0  0  0  0
   -1.1930    7.6750   -1.8900 C   0  0  0  0  0  0  0  0  0  0  0  0
   -2.4240    8.2140   -1.8270 C   0  0  0  0  0  0  0  0  0  0  0  0
   -2.6360    9.6360   -1.2930 C   0  0  1  0  0  0  0  0  0  0  0  0
   -3.8180    9.6420   -0.2880 C   0  0  0  0  0  0  0  0  0  0  0  0
   -5.0910    9.0460   -0.8800 C   0  0  0  0  0  0  0  0  0  0  0  0
   -4.8570    7.6120   -1.3470 C   0  0  2  0  0  0  0  0  0  0  0  0
   -4.6030    6.7900   -0.2030 O   0  0  0  0  0  0  0  0  0  0  0  0
   -3.6820    7.4800   -2.3560 C   0  0  0  0  0  0  0  0  0  0  0  0
   -4.0840    8.1180   -3.7090 C   0  0  0  0  0  0  0  0  0  0  0  0
   -3.4600    5.9690   -2.6370 C   0  0  0  0  0  0  0  0  0  0  0  0
   -1.3430   10.3600   -0.7180 C   0  0  1  0  0  0  0  0  0  0  0  0
   -1.1510    9.9920    0.7850 C   0  0  0  0  0  0  0  0  0  0  0  0
   -1.5600   11.9180   -0.7690 C   0  0  0  0  0  0  0  0  0  0  0  0
   -1.1630   12.6330   -2.0750 C   0  0  0  0  0  0  0  0  0  0  0  0
    0.2450   12.2230   -2.5170 C   0  0  2  0  0  0  0  0  0  0  0  0
    1.2500   12.6880   -1.4090 C   0  0  0  0  0  0  0  0  0  0  0  0
    1.1882   14.2372   -1.7534 H   0  0  0  0  0  0  0  0  0  0  0  0
    1.4631   15.8466   -2.5022 H   0  0  0  0  0  0  0  0  0  0  0  0
   -0.1820   15.1252   -2.5022 H   0  0  0  0  0  0  0  0  0  0  0  0
    2.2773   14.2790   -4.0763 H   0  0  0  0  0  0  0  0  0  0  0  0
   -0.5487   14.6920   -5.1091 H   0  0  0  0  0  0  0  0  0  0  0  0
    0.6740   16.0411   -4.9363 H   0  0  0  0  0  0  0  0  0  0  0  0
    2.2077   14.4938   -6.3456 H   0  0  0  0  0  0  0  0  0  0  0  0
    0.6505   13.6940   -6.8186 H   0  0  0  0  0  0  0  0  0  0  0  0
    0.5570   16.3990   -6.6767 H   0  0  0  0  0  0  0  0  0  0  0  0
    3.2921   14.6206   -8.1095 H   0  0  0  0  0  0  0  0  0  0  0  0
    2.4775   14.1184   -9.6296 H   0  0  0  0  0  0  0  0  0  0  0  0
    3.5868   15.5312   -9.6296 H   0  0  0  0  0  0  0  0  0  0  0  0
    1.6854   18.0118   -8.6304 H   0  0  0  0  0  0  0  0  0  0  0  0
    2.5841   17.3185  -10.0227 H   0  0  0  0  0  0  0  0  0  0  0  0
    0.7878   17.3171  -10.0227 H   0  0  0  0  0  0  0  0  0  0  0  0
   -0.1019   12.8282   -4.5890 H   0  0  0  0  0  0  0  0  0  0  0  0
    1.8003   11.5399   -5.3361 H   0  0  0  0  0  0  0  0  0  0  0  0
    2.8578   12.2329   -4.0877 H   0  0  0  0  0  0  0  0  0  0  0  0
    1.7179    9.6126   -4.0322 H   0  0  0  0  0  0  0  0  0  0  0  0
    2.4376   10.4063   -2.6337 H   0  0  0  0  0  0  0  0  0  0  0  0
   -1.6349    9.7959   -3.4843 H   0  0  0  0  0  0  0  0  0  0  0  0
   -0.9935   11.0869   -4.5560 H   0  0  0  0  0  0  0  0  0  0  0  0
   -0.2332    9.4594   -4.5560 H   0  0  0  0  0  0  0  0  0  0  0  0
    0.8240   10.2301   -0.8367 H   0  0  0  0  0  0  0  0  0  0  0  0
    0.8188    8.1345   -2.3351 H   0  0  0  0  0  0  0  0  0  0  0  0
    0.3676    8.0331   -0.5532 H   0  0  0  0  0  0  0  0  0  0  0  0
   -1.1184    6.6265   -2.2141 H   0  0  0  0  0  0  0  0  0  0  0  0
   -2.8870   10.2545   -2.1673 H   0  0  0  0  0  0  0  0  0  0  0  0
   -3.5317    9.0545    0.5968 H   0  0  0  0  0  0  0  0  0  0  0  0
   -4.0294   10.6894   -0.0269 H   0  0  0  0  0  0  0  0  0  0  0  0
   -5.8805    9.0507   -0.1141 H   0  0  0  0  0  0  0  0  0  0  0  0
   -5.3920    9.6525   -1.7470 H   0  0  0  0  0  0  0  0  0  0  0  0
   -5.7639    7.2860   -1.8773 H   0  0  0  0  0  0  0  0  0  0  0  0
   -3.6580    6.8680    0.0110 H   0  0  0  0  0  0  0  0  0  0  0  0
   -4.6621    9.0355   -3.5244 H   0  0  0  0  0  0  0  0  0  0  0  0
   -3.1778    8.3646   -4.2817 H   0  0  0  0  0  0  0  0  0  0  0  0
   -4.6976    7.4070   -4.2817 H   0  0  0  0  0  0  0  0  0  0  0  0
   -3.3803    5.4265   -1.6834 H   0  0  0  0  0  0  0  0  0  0  0  0
   -4.3098    5.5745   -3.2133 H   0  0  0  0  0  0  0  0  0  0  0  0
   -2.5326    5.8356   -3.2133 H   0  0  0  0  0  0  0  0  0  0  0  0
   -1.5683   10.7918    1.4145 H   0  0  0  0  0  0  0  0  0  0  0  0
   -1.6709    9.0469    1.0004 H   0  0  0  0  0  0  0  0  0  0  0  0
   -0.0784    9.8778    1.0004 H   0  0  0  0  0  0  0  0  0  0  0  0
   -2.6290   12.1108   -0.5959 H   0  0  0  0  0  0  0  0  0  0  0  0
   -0.8871   12.3273   -0.0011 H   0  0  0  0  0  0  0  0  0  0  0  0
   -1.8805   12.3651   -2.8646 H   0  0  0  0  0  0  0  0  0  0  0  0
   -1.1734   13.7186   -1.8982 H   0  0  0  0  0  0  0  0  0  0  0  0
    0.8195   12.4888   -0.4165 H   0  0  0  0  0  0  0  0  0  0  0  0
    2.1953   12.1357   -1.5162 H   0  0  0  0  0  0  0  0  0  0  0  0
    1.4410   13.7660   -1.5162 H   0  0  0  0  0  0  0  0  0  0  0  0
  1  2  1  0
  2  3  1  0
  3  4  1  0
  4  5  1  0
  5  6  1  0
  6  7  1  0
  7  8  1  0
  7  9  1  0
  2 10  1  0
 10 11  1  0
 11 12  1  0
 12 13  1  0
 13 14  1  6
 13 15  1  0
 15 16  1  0
 16 17  1  0
 17 18  2  0
 18 19  1  0
 19 20  1  0
 20 21  1  0
 21 22  1  0
 22 23  1  0
 22 24  1  0
 24 25  1  0
 24 26  1  0
 19 27  1  0
 27 28  1  1
 27 29  1  0
 29 30  1  0
 30 31  1  0
 31 32  1  1
  7  5  1  0
 31 10  1  0
 31 13  1  0
 27 15  1  0
 24 18  1  0
  1 33  1  0
  1 34  1  0
  1 35  1  0
  2 36  1  6
  3 37  1  0
  3 38  1  0
  4 39  1  0
  4 40  1  0
  5 41  1  1
  8 42  1  0
  8 43  1  0
  8 44  1  0
  9 45  1  0
  9 46  1  0
  9 47  1  0
 10 48  1  6
 11 49  1  0
 11 50  1  0
 12 51  1  0
 12 52  1  0
 14 53  1  0
 14 54  1  0
 14 55  1  0
 15 56  1  1
 16 57  1  0
 16 58  1  0
 17 59  1  0
 19 60  1  6
 20 61  1  0
 20 62  1  0
 21 63  1  0
 21 64  1  0
 22 65  1  6
 23 66  1  0
 25 67  1  0
 25 68  1  0
 25 69  1  0
 26 70  1  0
 26 71  1  0
 26 72  1  0
 28 73  1  0
 28 74  1  0
 28 75  1  0
 29 76  1  0
 29 77  1  0
 30 78  1  0
 30 79  1  0
 32 80  1  0
 32 81  1  0
 32 82  1  0
M  END
>  <meeko>  (17) 
{"is_sidechain": [false], "intermolecular_energy": 2.731, "internal_energy": -0.839}

$$$$
EPH_relaxed_0001_pdb2pqr_Repair_103_r2_0001_out
     RDKit          3D

 82 86  0  0  0  0  0  0  0  0999 V2000
   -1.7160   14.8120    0.4350 C   0  0  0  0  0  0  0  0  0  0  0  0
   -0.3710   15.5180    0.2410 C   0  0  2  0  0  0  0  0  0  0  0  0
   -0.4130   16.5410   -0.9120 C   0  0  0  0  0  0  0  0  0  0  0  0
   -0.0400   17.9630   -0.4860 C   0  0  0  0  0  0  0  0  0  0  0  0
    1.3940   18.0570   -0.0620 C   0  0  2  0  0  0  0  0  0  0  0  0
    2.0510   19.2750   -0.4380 O   0  0  0  0  0  0  0  0  0  0  0  0
    2.5560   18.0710   -1.0380 C   0  0  0  0  0  0  0  0  0  0  0  0
    2.3350   17.9870   -2.5160 C   0  0  0  0  0  0  0  0  0  0  0  0
    3.9110   17.6730   -0.5420 C   0  0  0  0  0  0  0  0  0  0  0  0
    0.7230   14.4890   -0.0140 C   0  0  1  0  0  0  0  0  0  0  0  0
    0.8680   13.4690    1.1470 C   0  0  0  0  0  0  0  0  0  0  0  0
    1.2470   12.1100    0.5040 C   0  0  0  0  0  0  0  0  0  0  0  0
    1.6320   12.4610   -0.9520 C   0  0  1  0  0  0  0  0  0  0  0  0
    3.1030   12.9740   -0.8660 C   0  0  0  0  0  0  0  0  0  0  0  0
    1.4810   11.3130   -2.0030 C   0  0  2  0  0  0  0  0  0  0  0  0
    2.3740   10.0840   -1.7580 C   0  0  0  0  0  0  0  0  0  0  0  0
    3.7140   10.1280   -2.4140 C   0  0  0  0  0  0  0  0  0  0  0  0
    4.0770   10.9740   -3.3960 C   0  0  0  0  0  0  0  0  0  0  0  0
    3.0630   11.9460   -4.0130 C   0  0  1  0  0  0  0  0  0  0  0  0
    3.1780   11.9020   -5.5590 C   0  0  0  0  0  0  0  0  0  0  0  0
    4.6010   12.1550   -6.0470 C   0  0  0  0  0  0  0  0  0  0  0  0
    5.5700   11.1340   -5.4580 C   0  0  2  0  0  0  0  0  0  0  0  0
    5.2580    9.8430   -5.9900 O   0  0  0  0  0  0  0  0  0  0  0  0
    5.5360   11.0810   -3.9050 C   0  0  0  0  0  0  0  0  0  0  0  0
    6.1590   12.3750   -3.3260 C   0  0  0  0  0  0  0  0  0  0  0  0
    6.4520    9.9150   -3.4460 C   0  0  0  0  0  0  0  0  0  0  0  0
    1.5640   11.7970   -3.5080 C   0  0  1  0  0  0  0  0  0  0  0  0
    0.8190   10.7250   -4.3610 C   0  0  0  0  0  0  0  0  0  0  0  0
    0.8040   13.1560   -3.7420 C   0  0  0  0  0  0  0  0  0  0  0  0
    0.8920   14.2040   -2.6160 C   0  0  0  0  0  0  0  0  0  0  0  0
    0.5660   13.5770   -1.2570 C   0  0  2  0  0  0  0  0  0  0  0  0
   -0.9160   13.0710   -1.3060 C   0  0  0  0  0  0  0  0  0  0  0  0
   -1.9217   14.7040    1.5102 H   0  0  0  0  0  0  0  0  0  0  0  0
   -2.5136   15.4077   -0.0329 H   0  0  0  0  0  0  0  0  0  0  0  0
   -1.6788   13.8172   -0.0329 H   0  0  0  0  0  0  0  0  0  0  0  0
   -0.1513   16.0725    1.1652 H   0  0  0  0  0  0  0  0  0  0  0  0
    0.2921   16.2155   -1.6910 H   0  0  0  0  0  0  0  0  0  0  0  0
   -1.4512   16.5755   -1.2739 H   0  0  0  0  0  0  0  0  0  0  0  0
   -0.2064   18.6441   -1.3336 H   0  0  0  0  0  0  0  0  0  0  0  0
   -0.6699   18.2399    0.3722 H   0  0  0  0  0  0  0  0  0  0  0  0
    1.1923   17.4553    0.8365 H   0  0  0  0  0  0  0  0  0  0  0  0
    1.3236   17.6026   -2.7142 H   0  0  0  0  0  0  0  0  0  0  0  0
    2.4404   18.9879   -2.9600 H   0  0  0  0  0  0  0  0  0  0  0  0
    3.0786   17.3088   -2.9600 H   0  0  0  0  0  0  0  0  0  0  0  0
    3.9132   17.6724    0.5580 H   0  0  0  0  0  0  0  0  0  0  0  0
    4.1547   16.6653   -0.9097 H   0  0  0  0  0  0  0  0  0  0  0  0
    4.6609   18.3888   -0.9097 H   0  0  0  0  0  0  0  0  0  0  0  0
    1.5817   15.1633   -0.1479 H   0  0  0  0  0  0  0  0  0  0  0  0
    1.6582   13.7937    1.8399 H   0  0  0  0  0  0  0  0  0  0  0  0
   -0.0673   13.3875    1.7201 H   0  0  0  0  0  0  0  0  0  0  0  0
    2.0980   11.6547    1.0317 H   0  0  0  0  0  0  0  0  0  0  0  0
    0.4246   11.3812    0.5538 H   0  0  0  0  0  0  0  0  0  0  0  0
    3.3947   13.0757    0.1897 H   0  0  0  0  0  0  0  0  0  0  0  0
    3.7714   12.2559   -1.3635 H   0  0  0  0  0  0  0  0  0  0  0  0
    3.1799   13.9520   -1.3635 H   0  0  0  0  0  0  0  0  0  0  0  0
    0.4490   10.9717   -1.8341 H   0  0  0  0  0  0  0  0  0  0  0  0
    2.5297    9.9879   -0.6733 H   0  0  0  0  0  0  0  0  0  0  0  0
    1.8446    9.2295   -2.2048 H   0  0  0  0  0  0  0  0  0  0  0  0
    4.4690    9.4079   -2.0654 H   0  0  0  0  0  0  0  0  0  0  0  0
    3.3387   12.9459   -3.6467 H   0  0  0  0  0  0  0  0  0  0  0  0
    2.8565   10.9097   -5.9084 H   0  0  0  0  0  0  0  0  0  0  0  0
    2.5391   12.7004   -5.9643 H   0  0  0  0  0  0  0  0  0  0  0  0
    4.6236   12.0812   -7.1443 H   0  0  0  0  0  0  0  0  0  0  0  0
    4.9098   13.1596   -5.7222 H   0  0  0  0  0  0  0  0  0  0  0  0
    6.5872   11.4448   -5.7386 H   0  0  0  0  0  0  0  0  0  0  0  0
    4.2960    9.8020   -6.1190 H   0  0  0  0  0  0  0  0  0  0  0  0
    6.1383   12.3320   -2.2270 H   0  0  0  0  0  0  0  0  0  0  0  0
    7.1999   12.4665   -3.6698 H   0  0  0  0  0  0  0  0  0  0  0  0
    5.5814   13.2457   -3.6698 H   0  0  0  0  0  0  0  0  0  0  0  0
    6.4789    9.8807   -2.3469 H   0  0  0  0  0  0  0  0  0  0  0  0
    6.0568    8.9641   -3.8329 H   0  0  0  0  0  0  0  0  0  0  0  0
    7.4694   10.0738   -3.8329 H   0  0  0  0  0  0  0  0  0  0  0  0
    0.3201   10.0071   -3.6934 H   0  0  0  0  0  0  0  0  0  0  0  0
    0.0682   11.2184   -4.9957 H   0  0  0  0  0  0  0  0  0  0  0  0
    1.5432   10.1933   -4.9957 H   0  0  0  0  0  0  0  0  0  0  0  0
    1.2133   13.6133   -4.6549 H   0  0  0  0  0  0  0  0  0  0  0  0
   -0.2604   12.8843   -3.7998 H   0  0  0  0  0  0  0  0  0  0  0  0
    1.9114   14.6162   -2.5869 H   0  0  0  0  0  0  0  0  0  0  0  0
    0.1606   15.0000   -2.8196 H   0  0  0  0  0  0  0  0  0  0  0  0
   -1.2935   12.9421   -0.2809 H   0  0  0  0  0  0  0  0  0  0  0  0
   -1.5377   13.8078   -1.8358 H   0  0  0  0  0  0  0  0  0  0  0  0
   -0.9573   12.1079   -1.8358 H   0  0  0  0  0  0  0  0  0  0  0  0
  1  2  1  0
  2  3  1  0
  3  4  1  0
  4  5  1  0
  5  6  1  0
  6  7  1  0
  7  8  1  0
  7  9  1  0
  2 10  1  0
 10 11  1  0
 11 12  1  0
 12 13  1  0
 13 14  1  1
 13 15  1  0
 15 16  1  0
 16 17  1  0
 17 18  2  0
 18 19  1  0
 19 20  1  0
 20 21  1  0
 21 22  1  0
 22 23  1  0
 22 24  1  0
 24 25  1  0
 24 26  1  0
 19 27  1  0
 27 28  1  6
 27 29  1  0
 29 30  1  0
 30 31  1  0
 31 32  1  6
  7  5  1  0
 31 10  1  0
 31 13  1  0
 27 15  1  0
 24 18  1  0
  1 33  1  0
  1 34  1  0
  1 35  1  0
  2 36  1  1
  3 37  1  0
  3 38  1  0
  4 39  1  0
  4 40  1  0
  5 41  1  1
  8 42  1  0
  8 43  1  0
  8 44  1  0
  9 45  1  0
  9 46  1  0
  9 47  1  0
 10 48  1  6
 11 49  1  0
 11 50  1  0
 12 51  1  0
 12 52  1  0
 14 53  1  0
 14 54  1  0
 14 55  1  0
 15 56  1  6
 16 57  1  0
 16 58  1  0
 17 59  1  0
 19 60  1  1
 20 61  1  0
 20 62  1  0
 21 63  1  0
 21 64  1  0
 22 65  1  1
 23 66  1  0
 25 67  1  0
 25 68  1  0
 25 69  1  0
 26 70  1  0
 26 71  1  0
 26 72  1  0
 28 73  1  0
 28 74  1  0
 28 75  1  0
 29 76  1  0
 29 77  1  0
 30 78  1  0
 30 79  1  0
 32 80  1  0
 32 81  1  0
 32 82  1  0
M  END
>  <meeko>  (18) 
{"is_sidechain": [false], "intermolecular_energy": 2.731, "internal_energy": -0.839}

$$$$
EPH_relaxed_0001_pdb2pqr_Repair_103_r2_0001_out
     RDKit          3D

 82 86  0  0  0  0  0  0  0  0999 V2000
   -2.4910    7.7940   -0.0040 C   0  0  0  0  0  0  0  0  0  0  0  0
   -3.1580    9.1710   -0.0600 C   0  0  2  0  0  0  0  0  0  0  0  0
   -4.6280    9.0860   -0.5170 C   0  0  0  0  0  0  0  0  0  0  0  0
   -5.1480    7.6530   -0.6530 C   0  0  0  0  0  0  0  0  0  0  0  0
   -5.9070    7.4570   -1.9310 C   0  0  2  0  0  0  0  0  0  0  0  0
   -6.8250    8.5110   -2.2500 O   0  0  0  0  0  0  0  0  0  0  0  0
   -7.4050    7.2230   -1.9880 C   0  0  0  0  0  0  0  0  0  0  0  0
   -8.2340    7.1710   -0.7430 C   0  0  0  0  0  0  0  0  0  0  0  0
   -7.9800    6.5630   -3.2010 C   0  0  0  0  0  0  0  0  0  0  0  0
   -2.3750   10.0890   -0.9910 C   0  0  1  0  0  0  0  0  0  0  0  0
   -3.0050   11.5030   -1.1040 C   0  0  0  0  0  0  0  0  0  0  0  0
   -1.8310   12.5050   -1.2540 C   0  0  0  0  0  0  0  0  0  0  0  0
   -0.5990   11.6200   -1.5550 C   0  0  1  0  0  0  0  0  0  0  0  0
   -0.6930   11.3080   -3.0810 C   0  0  0  0  0  0  0  0  0  0  0  0
    0.7930   12.2200   -1.1730 C   0  0  2  0  0  0  0  0  0  0  0  0
    1.1750   13.5100   -1.9210 C   0  0  0  0  0  0  0  0  0  0  0  0
    1.9260   13.3090   -3.1960 C   0  0  0  0  0  0  0  0  0  0  0  0
    2.5260   12.1670   -3.5780 C   0  0  0  0  0  0  0  0  0  0  0  0
    2.5690   10.9490   -2.6460 C   0  0  1  0  0  0  0  0  0  0  0  0
    4.0060   10.3650   -2.6240 C   0  0  0  0  0  0  0  0  0  0  0  0
    4.5320   10.0490   -4.0210 C   0  0  0  0  0  0  0  0  0  0  0  0
    4.5280   11.2970   -4.9000 C   0  0  2  0  0  0  0  0  0  0  0  0
    5.4850   12.2270   -4.3840 O   0  0  0  0  0  0  0  0  0  0  0  0
    3.1340   11.9780   -4.9900 C   0  0  0  0  0  0  0  0  0  0  0  0
    2.1730   11.0900   -5.8180 C   0  0  0  0  0  0  0  0  0  0  0  0
    3.2990   13.2990   -5.7890 C   0  0  0  0  0  0  0  0  0  0  0  0
    1.9780   11.1710   -1.1880 C   0  0  1  0  0  0  0  0  0  0  0  0
    3.0840   11.7350   -0.2450 C   0  0  0  0  0  0  0  0  0  0  0  0
    1.5520    9.7790   -0.5890 C   0  0  0  0  0  0  0  0  0  0  0  0
    0.1230    9.2960   -0.9020 C   0  0  0  0  0  0  0  0  0  0  0  0
   -0.9040   10.3960   -0.6160 C   0  0  2  0  0  0  0  0  0  0  0  0
   -0.8480   10.7160    0.9170 C   0  0  0  0  0  0  0  0  0  0  0  0
   -2.3478    7.4984    1.0458 H   0  0  0  0  0  0  0  0  0  0  0  0
   -3.1313    7.0556   -0.5088 H   0  0  0  0  0  0  0  0  0  0  0  0
   -1.5147    7.8387   -0.5088 H   0  0  0  0  0  0  0  0  0  0  0  0
   -3.1533    9.5834    0.9598 H   0  0  0  0  0  0  0  0  0  0  0  0
   -5.2518    9.6134    0.2197 H   0  0  0  0  0  0  0  0  0  0  0  0
   -4.6811    9.5435   -1.5160 H   0  0  0  0  0  0  0  0  0  0  0  0
   -4.2934    6.9606   -0.6363 H   0  0  0  0  0  0  0  0  0  0  0  0
   -5.8320    7.4556    0.1855 H   0  0  0  0  0  0  0  0  0  0  0  0
   -5.0588    6.9187   -2.3790 H   0  0  0  0  0  0  0  0  0  0  0  0
   -7.5761    7.2123    0.1376 H   0  0  0  0  0  0  0  0  0  0  0  0
   -8.9238    8.0276   -0.7258 H   0  0  0  0  0  0  0  0  0  0  0  0
   -8.8114    6.2349   -0.7258 H   0  0  0  0  0  0  0  0  0  0  0  0
   -8.6734    5.7671   -2.8914 H   0  0  0  0  0  0  0  0  0  0  0  0
   -8.5219    7.3082   -3.8018 H   0  0  0  0  0  0  0  0  0  0  0  0
   -7.1675    6.1283   -3.8018 H   0  0  0  0  0  0  0  0  0  0  0  0
   -2.4106    9.4900   -1.9129 H   0  0  0  0  0  0  0  0  0  0  0  0
   -3.6626   11.5555   -1.9842 H   0  0  0  0  0  0  0  0  0  0  0  0
   -3.6129   11.7366   -0.2175 H   0  0  0  0  0  0  0  0  0  0  0  0
   -2.0197   13.2030   -2.0830 H   0  0  0  0  0  0  0  0  0  0  0  0
   -1.6916   13.1220   -0.3541 H   0  0  0  0  0  0  0  0  0  0  0  0
   -1.0077   10.2636   -3.2230 H   0  0  0  0  0  0  0  0  0  0  0  0
   -1.4288   11.9793   -3.5479 H   0  0  0  0  0  0  0  0  0  0  0  0
    0.2912   11.4611   -3.5479 H   0  0  0  0  0  0  0  0  0  0  0  0
    0.6421   12.5157   -0.1243 H   0  0  0  0  0  0  0  0  0  0  0  0
    0.2483   14.0547   -2.1545 H   0  0  0  0  0  0  0  0  0  0  0  0
    1.8527   14.0606   -1.2520 H   0  0  0  0  0  0  0  0  0  0  0  0
    1.9944   14.1672   -3.8807 H   0  0  0  0  0  0  0  0  0  0  0  0
    1.8733   10.2126   -3.0748 H   0  0  0  0  0  0  0  0  0  0  0  0
    4.6770   11.0979   -2.1523 H   0  0  0  0  0  0  0  0  0  0  0  0
    3.9739    9.4219   -2.0587 H   0  0  0  0  0  0  0  0  0  0  0  0
    5.5609    9.6683   -3.9408 H   0  0  0  0  0  0  0  0  0  0  0  0
    3.8775    9.2936   -4.4803 H   0  0  0  0  0  0  0  0  0  0  0  0
    4.7901   10.9825   -5.9210 H   0  0  0  0  0  0  0  0  0  0  0  0
    5.0060   12.8670   -3.8330 H   0  0  0  0  0  0  0  0  0  0  0  0
    1.5381   10.5034   -5.1377 H   0  0  0  0  0  0  0  0  0  0  0  0
    1.5396   11.7275   -6.4523 H   0  0  0  0  0  0  0  0  0  0  0  0
    2.7586   10.4083   -6.4523 H   0  0  0  0  0  0  0  0  0  0  0  0
    3.4041   14.1405   -5.0885 H   0  0  0  0  0  0  0  0  0  0  0  0
    4.1961   13.2349   -6.4223 H   0  0  0  0  0  0  0  0  0  0  0  0
    2.4137   13.4575   -6.4223 H   0  0  0  0  0  0  0  0  0  0  0  0
    2.7853   11.5827    0.8026 H   0  0  0  0  0  0  0  0  0  0  0  0
    4.0316   11.2100   -0.4361 H   0  0  0  0  0  0  0  0  0  0  0  0
    3.2155   12.8103   -0.4361 H   0  0  0  0  0  0  0  0  0  0  0  0
    2.2510    9.0226   -0.9753 H   0  0  0  0  0  0  0  0  0  0  0  0
    1.5771    9.9155    0.5022 H   0  0  0  0  0  0  0  0  0  0  0  0
    0.0628    9.0152   -1.9638 H   0  0  0  0  0  0  0  0  0  0  0  0
   -0.1026    8.4311   -0.2609 H   0  0  0  0  0  0  0  0  0  0  0  0
   -1.0098    9.7915    1.4907 H   0  0  0  0  0  0  0  0  0  0  0  0
    0.1372   11.1357    1.1682 H   0  0  0  0  0  0  0  0  0  0  0  0
   -1.6322   11.4454    1.1682 H   0  0  0  0  0  0  0  0  0  0  0  0
  1  2  1  0
  2  3  1  0
  3  4  1  0
  4  5  1  0
  5  6  1  0
  6  7  1  0
  7  8  1  0
  7  9  1  0
  2 10  1  0
 10 11  1  0
 11 12  1  0
 12 13  1  0
 13 14  1  6
 13 15  1  0
 15 16  1  0
 16 17  1  0
 17 18  2  0
 18 19  1  0
 19 20  1  0
 20 21  1  0
 21 22  1  0
 22 23  1  0
 22 24  1  0
 24 25  1  0
 24 26  1  0
 19 27  1  0
 27 28  1  1
 27 29  1  0
 29 30  1  0
 30 31  1  0
 31 32  1  1
  7  5  1  0
 31 10  1  0
 31 13  1  0
 27 15  1  0
 24 18  1  0
  1 33  1  0
  1 34  1  0
  1 35  1  0
  2 36  1  1
  3 37  1  0
  3 38  1  0
  4 39  1  0
  4 40  1  0
  5 41  1  6
  8 42  1  0
  8 43  1  0
  8 44  1  0
  9 45  1  0
  9 46  1  0
  9 47  1  0
 10 48  1  6
 11 49  1  0
 11 50  1  0
 12 51  1  0
 12 52  1  0
 14 53  1  0
 14 54  1  0
 14 55  1  0
 15 56  1  1
 16 57  1  0
 16 58  1  0
 17 59  1  0
 19 60  1  6
 20 61  1  0
 20 62  1  0
 21 63  1  0
 21 64  1  0
 22 65  1  6
 23 66  1  0
 25 67  1  0
 25 68  1  0
 25 69  1  0
 26 70  1  0
 26 71  1  0
 26 72  1  0
 28 73  1  0
 28 74  1  0
 28 75  1  0
 29 76  1  0
 29 77  1  0
 30 78  1  0
 30 79  1  0
 32 80  1  0
 32 81  1  0
 32 82  1  0
M  END
>  <meeko>  (19) 
{"is_sidechain": [false], "intermolecular_energy": 2.731, "internal_energy": -0.839}

$$$$
