EPH_relaxed_0001_pdb2pqr_Repair_128_r2_0001_out
     RDKit          3D

 82 86  0  0  0  0  0  0  0  0999 V2000
   -1.7000    8.4990   -1.8860 C   0  0  0  0  0  0  0  0  0  0  0  0
   -2.1080    9.0340   -0.5110 C   0  0  2  0  0  0  0  0  0  0  0  0
   -3.6080    9.3840   -0.4450 C   0  0  0  0  0  0  0  0  0  0  0  0
   -4.5210    8.1620   -0.3170 C   0  0  0  0  0  0  0  0  0  0  0  0
   -5.2290    7.8620   -1.6030 C   0  0  2  0  0  0  0  0  0  0  0  0
   -6.4050    8.6480   -1.8360 O   0  0  0  0  0  0  0  0  0  0  0  0
   -6.6100    7.2350   -1.6710 C   0  0  0  0  0  0  0  0  0  0  0  0
   -7.3630    6.8710   -0.4310 C   0  0  0  0  0  0  0  0  0  0  0  0
   -7.0160    6.5340   -2.9300 C   0  0  0  0  0  0  0  0  0  0  0  0
   -1.2710   10.2590   -0.1610 C   0  0  1  0  0  0  0  0  0  0  0  0
   -0.2710    9.9880    0.9950 C   0  0  0  0  0  0  0  0  0  0  0  0
    1.0000   10.8220    0.6900 C   0  0  0  0  0  0  0  0  0  0  0  0
    0.5710   11.7900   -0.4370 C   0  0  1  0  0  0  0  0  0  0  0  0
   -0.1690   12.9530    0.2940 C   0  0  0  0  0  0  0  0  0  0  0  0
    1.7130   12.3240   -1.3620 C   0  0  2  0  0  0  0  0  0  0  0  0
    2.7870   13.1660   -0.6520 C   0  0  0  0  0  0  0  0  0  0  0  0
    2.5200   14.6340   -0.6080 C   0  0  0  0  0  0  0  0  0  0  0  0
    1.6120   15.2870   -1.3570 C   0  0  0  0  0  0  0  0  0  0  0  0
    0.8060   14.5520   -2.4360 C   0  0  1  0  0  0  0  0  0  0  0  0
    0.8090   15.3870   -3.7440 C   0  0  0  0  0  0  0  0  0  0  0  0
    0.3240   16.8170   -3.5260 C   0  0  0  0  0  0  0  0  0  0  0  0
    1.1860   17.5330   -2.4900 C   0  0  2  0  0  0  0  0  0  0  0  0
    2.5030   17.7040   -3.0240 O   0  0  0  0  0  0  0  0  0  0  0  0
    1.2660   16.7800   -1.1330 C   0  0  0  0  0  0  0  0  0  0  0  0
   -0.1030   16.8580   -0.4120 C   0  0  0  0  0  0  0  0  0  0  0  0
    2.2770   17.5340   -0.2270 C   0  0  0  0  0  0  0  0  0  0  0  0
    1.2010   13.0320   -2.6810 C   0  0  1  0  0  0  0  0  0  0  0  0
    2.3660   12.9450   -3.7140 C   0  0  0  0  0  0  0  0  0  0  0  0
   -0.0230   12.2810   -3.3270 C   0  0  0  0  0  0  0  0  0  0  0  0
   -1.0550   11.6720   -2.3590 C   0  0  0  0  0  0  0  0  0  0  0  0
   -0.3640   10.8420   -1.2730 C   0  0  2  0  0  0  0  0  0  0  0  0
    0.3710    9.6510   -1.9770 C   0  0  0  0  0  0  0  0  0  0  0  0
   -1.0374    7.6301   -1.7595 H   0  0  0  0  0  0  0  0  0  0  0  0
   -2.5989    8.1966   -2.4433 H   0  0  0  0  0  0  0  0  0  0  0  0
   -1.1705    9.2859   -2.4433 H   0  0  0  0  0  0  0  0  0  0  0  0
   -1.9235    8.2355    0.2227 H   0  0  0  0  0  0  0  0  0  0  0  0
   -3.7746   10.0345    0.4262 H   0  0  0  0  0  0  0  0  0  0  0  0
   -3.8643    9.8783   -1.3937 H   0  0  0  0  0  0  0  0  0  0  0  0
   -3.9126    7.2906   -0.0333 H   0  0  0  0  0  0  0  0  0  0  0  0
   -5.2795    8.3795    0.4494 H   0  0  0  0  0  0  0  0  0  0  0  0
   -4.2785    7.6084   -2.0951 H   0  0  0  0  0  0  0  0  0  0  0  0
   -6.7735    7.1560    0.4529 H   0  0  0  0  0  0  0  0  0  0  0  0
   -8.3255    7.4033   -0.4170 H   0  0  0  0  0  0  0  0  0  0  0  0
   -7.5438    5.7860   -0.4170 H   0  0  0  0  0  0  0  0  0  0  0  0
   -7.5525    5.6076   -2.6772 H   0  0  0  0  0  0  0  0  0  0  0  0
   -7.6741    7.1898   -3.5189 H   0  0  0  0  0  0  0  0  0  0  0  0
   -6.1197    6.2895   -3.5189 H   0  0  0  0  0  0  0  0  0  0  0  0
   -2.0753   10.9701    0.0787 H   0  0  0  0  0  0  0  0  0  0  0  0
   -0.7078   10.3002    1.9550 H   0  0  0  0  0  0  0  0  0  0  0  0
   -0.0327    8.9167    1.0688 H   0  0  0  0  0  0  0  0  0  0  0  0
    1.3204   11.3815    1.5813 H   0  0  0  0  0  0  0  0  0  0  0  0
    1.8519   10.1913    0.3960 H   0  0  0  0  0  0  0  0  0  0  0  0
   -0.0821   12.8164    1.3820 H   0  0  0  0  0  0  0  0  0  0  0  0
    0.2844   13.9134    0.0077 H   0  0  0  0  0  0  0  0  0  0  0  0
   -1.2311   12.9491    0.0077 H   0  0  0  0  0  0  0  0  0  0  0  0
    2.2176   11.3974   -1.6732 H   0  0  0  0  0  0  0  0  0  0  0  0
    2.8725   12.8049    0.3835 H   0  0  0  0  0  0  0  0  0  0  0  0
    3.7087   13.0417   -1.2393 H   0  0  0  0  0  0  0  0  0  0  0  0
    3.1159   15.2330    0.0963 H   0  0  0  0  0  0  0  0  0  0  0  0
   -0.2200   14.4715   -2.0475 H   0  0  0  0  0  0  0  0  0  0  0  0
    1.8349   15.4190   -4.1396 H   0  0  0  0  0  0  0  0  0  0  0  0
    0.1178   14.9039   -4.4503 H   0  0  0  0  0  0  0  0  0  0  0  0
    0.3769   17.3643   -4.4787 H   0  0  0  0  0  0  0  0  0  0  0  0
   -0.7123   16.7842   -3.1585 H   0  0  0  0  0  0  0  0  0  0  0  0
    0.7126   18.5039   -2.2821 H   0  0  0  0  0  0  0  0  0  0  0  0
    2.8810   18.5040   -2.6230 H   0  0  0  0  0  0  0  0  0  0  0  0
    0.0549   16.8490    0.6766 H   0  0  0  0  0  0  0  0  0  0  0  0
   -0.6169   17.7869   -0.7003 H   0  0  0  0  0  0  0  0  0  0  0  0
   -0.7190   15.9935   -0.7003 H   0  0  0  0  0  0  0  0  0  0  0  0
    2.0307   17.3503    0.8292 H   0  0  0  0  0  0  0  0  0  0  0  0
    3.2952   17.1729   -0.4342 H   0  0  0  0  0  0  0  0  0  0  0  0
    2.2213   18.6129   -0.4342 H   0  0  0  0  0  0  0  0  0  0  0  0
    3.3250   12.8734   -3.1800 H   0  0  0  0  0  0  0  0  0  0  0  0
    2.2305   12.0545   -4.3453 H   0  0  0  0  0  0  0  0  0  0  0  0
    2.3643   13.8458   -4.3453 H   0  0  0  0  0  0  0  0  0  0  0  0
   -0.5530   12.9999   -3.9691 H   0  0  0  0  0  0  0  0  0  0  0  0
    0.4142   11.4227   -3.8582 H   0  0  0  0  0  0  0  0  0  0  0  0
   -1.6252   12.4836   -1.8835 H   0  0  0  0  0  0  0  0  0  0  0  0
   -1.7261   11.0136   -2.9301 H   0  0  0  0  0  0  0  0  0  0  0  0
    0.7878    8.9757   -1.2153 H   0  0  0  0  0  0  0  0  0  0  0  0
   -0.3437    9.0989   -2.6050 H   0  0  0  0  0  0  0  0  0  0  0  0
    1.1850   10.0422   -2.6050 H   0  0  0  0  0  0  0  0  0  0  0  0
  1  2  1  0
  2  3  1  0
  3  4  1  0
  4  5  1  0
  5  6  1  0
  6  7  1  0
  7  8  1  0
  7  9  1  0
  2 10  1  0
 10 11  1  0
 11 12  1  0
 12 13  1  0
 13 14  1  1
 13 15  1  0
 15 16  1  0
 16 17  1  0
 17 18  2  0
 18 19  1  0
 19 20  1  0
 20 21  1  0
 21 22  1  0
 22 23  1  0
 22 24  1  0
 24 25  1  0
 24 26  1  0
 19 27  1  0
 27 28  1  6
 27 29  1  0
 29 30  1  0
 30 31  1  0
 31 32  1  6
  7  5  1  0
 31 10  1  0
 31 13  1  0
 27 15  1  0
 24 18  1  0
  1 33  1  0
  1 34  1  0
  1 35  1  0
  2 36  1  1
  3 37  1  0
  3 38  1  0
  4 39  1  0
  4 40  1  0
  5 41  1  6
  8 42  1  0
  8 43  1  0
  8 44  1  0
  9 45  1  0
  9 46  1  0
  9 47  1  0
 10 48  1  1
 11 49  1  0
 11 50  1  0
 12 51  1  0
 12 52  1  0
 14 53  1  0
 14 54  1  0
 14 55  1  0
 15 56  1  6
 16 57  1  0
 16 58  1  0
 17 59  1  0
 19 60  1  1
 20 61  1  0
 20 62  1  0
 21 63  1  0
 21 64  1  0
 22 65  1  1
 23 66  1  0
 25 67  1  0
 25 68  1  0
 25 69  1  0
 26 70  1  0
 26 71  1  0
 26 72  1  0
 28 73  1  0
 28 74  1  0
 28 75  1  0
 29 76  1  0
 29 77  1  0
 30 78  1  0
 30 79  1  0
 32 80  1  0
 32 81  1  0
 32 82  1  0
M  END
>  <meeko>  (1) 
{"is_sidechain": [false], "intermolecular_energy": 2.731, "internal_energy": -0.839}

$$$$
EPH_relaxed_0001_pdb2pqr_Repair_128_r2_0001_out
     RDKit          3D

 82 86  0  0  0  0  0  0  0  0999 V2000
    1.8910   19.6180   -0.4250 C   0  0  0  0  0  0  0  0  0  0  0  0
    2.3360   18.3570    0.3210 C   0  0  2  0  0  0  0  0  0  0  0  0
    3.7810   17.9520   -0.0330 C   0  0  0  0  0  0  0  0  0  0  0  0
    4.8040   18.3180    1.0460 C   0  0  0  0  0  0  0  0  0  0  0  0
    4.1710   19.0670    2.1790 C   0  0  2  0  0  0  0  0  0  0  0  0
    4.9240   20.1940    2.6470 O   0  0  0  0  0  0  0  0  0  0  0  0
    4.7530   19.1140    3.5800 C   0  0  0  0  0  0  0  0  0  0  0  0
    6.0230   18.3990    3.9210 C   0  0  0  0  0  0  0  0  0  0  0  0
    3.8440   19.4420    4.7220 C   0  0  0  0  0  0  0  0  0  0  0  0
    1.3820   17.2080    0.0140 C   0  0  1  0  0  0  0  0  0  0  0  0
    0.1200   17.6700   -0.7620 C   0  0  0  0  0  0  0  0  0  0  0  0
   -0.2560   16.5200   -1.7310 C   0  0  0  0  0  0  0  0  0  0  0  0
    0.5880   15.3160   -1.2530 C   0  0  1  0  0  0  0  0  0  0  0  0
   -0.2030   14.7250   -0.0440 C   0  0  0  0  0  0  0  0  0  0  0  0
    0.9030   14.2230   -2.3260 C   0  0  2  0  0  0  0  0  0  0  0  0
   -0.3270   13.5010   -2.9020 C   0  0  0  0  0  0  0  0  0  0  0  0
   -0.7420   12.2660   -2.1740 C   0  0  0  0  0  0  0  0  0  0  0  0
    0.0080   11.5980   -1.2780 C   0  0  0  0  0  0  0  0  0  0  0  0
    1.4550   12.0200   -0.9900 C   0  0  1  0  0  0  0  0  0  0  0  0
    2.3700   10.7680   -0.9920 C   0  0  0  0  0  0  0  0  0  0  0  0
    1.8780    9.6830   -0.0380 C   0  0  0  0  0  0  0  0  0  0  0  0
    0.4590    9.2480   -0.3920 C   0  0  2  0  0  0  0  0  0  0  0  0
    0.4810    8.5920   -1.6640 O   0  0  0  0  0  0  0  0  0  0  0  0
   -0.5520   10.4280   -0.4310 C   0  0  0  0  0  0  0  0  0  0  0  0
   -0.8030   10.9460    1.0070 C   0  0  0  0  0  0  0  0  0  0  0  0
   -1.9120    9.8760   -0.9380 C   0  0  0  0  0  0  0  0  0  0  0  0
    2.0260   13.1950   -1.8940 C   0  0  1  0  0  0  0  0  0  0  0  0
    2.6240   12.6110   -3.2110 C   0  0  0  0  0  0  0  0  0  0  0  0
    3.2170   13.8940   -1.1370 C   0  0  0  0  0  0  0  0  0  0  0  0
    2.8530   15.0450   -0.1810 C   0  0  0  0  0  0  0  0  0  0  0  0
    1.9220   16.0520   -0.8650 C   0  0  2  0  0  0  0  0  0  0  0  0
    2.7000   16.6790   -2.0720 C   0  0  0  0  0  0  0  0  0  0  0  0
    1.6163   20.3964    0.3021 H   0  0  0  0  0  0  0  0  0  0  0  0
    2.7155   19.9806   -1.0565 H   0  0  0  0  0  0  0  0  0  0  0  0
    1.0216   19.3828   -1.0565 H   0  0  0  0  0  0  0  0  0  0  0  0
    2.3116   18.5830    1.3973 H   0  0  0  0  0  0  0  0  0  0  0  0
    3.8095   16.8627   -0.1836 H   0  0  0  0  0  0  0  0  0  0  0  0
    4.0578   18.5082   -0.9408 H   0  0  0  0  0  0  0  0  0  0  0  0
    5.2552   17.3943    1.4373 H   0  0  0  0  0  0  0  0  0  0  0  0
    5.5663   18.9667    0.5897 H   0  0  0  0  0  0  0  0  0  0  0  0
    3.1644   18.8272    1.8059 H   0  0  0  0  0  0  0  0  0  0  0  0
    6.1282   18.3398    5.0144 H   0  0  0  0  0  0  0  0  0  0  0  0
    5.9964   17.3833    3.4996 H   0  0  0  0  0  0  0  0  0  0  0  0
    6.8777   18.9485    3.4996 H   0  0  0  0  0  0  0  0  0  0  0  0
    4.3659   19.2537    5.6718 H   0  0  0  0  0  0  0  0  0  0  0  0
    3.5537   20.5016    4.6669 H   0  0  0  0  0  0  0  0  0  0  0  0
    2.9440   18.8119    4.6669 H   0  0  0  0  0  0  0  0  0  0  0  0
    1.1920   16.8479    1.0359 H   0  0  0  0  0  0  0  0  0  0  0  0
   -0.7065   17.8605   -0.0616 H   0  0  0  0  0  0  0  0  0  0  0  0
    0.3145   18.6023   -1.3125 H   0  0  0  0  0  0  0  0  0  0  0  0
   -1.3301   16.2920   -1.6649 H   0  0  0  0  0  0  0  0  0  0  0  0
   -0.0573   16.7779   -2.7817 H   0  0  0  0  0  0  0  0  0  0  0  0
    0.2547   15.0670    0.8960 H   0  0  0  0  0  0  0  0  0  0  0  0
   -1.2481   15.0653   -0.0880 H   0  0  0  0  0  0  0  0  0  0  0  0
   -0.1730   13.6263   -0.0880 H   0  0  0  0  0  0  0  0  0  0  0  0
    1.3158   14.8178   -3.1541 H   0  0  0  0  0  0  0  0  0  0  0  0
   -1.1722   14.2048   -2.8861 H   0  0  0  0  0  0  0  0  0  0  0  0
   -0.0422   13.1760   -3.9136 H   0  0  0  0  0  0  0  0  0  0  0  0
   -1.7451   11.8683   -2.3877 H   0  0  0  0  0  0  0  0  0  0  0  0
    1.4464   12.4732    0.0123 H   0  0  0  0  0  0  0  0  0  0  0  0
    2.4001   10.3547   -2.0109 H   0  0  0  0  0  0  0  0  0  0  0  0
    3.3682   11.0830   -0.6537 H   0  0  0  0  0  0  0  0  0  0  0  0
    2.5484    8.8135   -0.1053 H   0  0  0  0  0  0  0  0  0  0  0  0
    1.8760   10.0890    0.9843 H   0  0  0  0  0  0  0  0  0  0  0  0
    0.1161    8.5667    0.4006 H   0  0  0  0  0  0  0  0  0  0  0  0
   -0.4250    8.3010   -1.8610 H   0  0  0  0  0  0  0  0  0  0  0  0
   -0.4426   10.2022    1.7328 H   0  0  0  0  0  0  0  0  0  0  0  0
   -0.2641   11.8935    1.1547 H   0  0  0  0  0  0  0  0  0  0  0  0
   -1.8806   11.1102    1.1547 H   0  0  0  0  0  0  0  0  0  0  0  0
   -2.5469    9.6183   -0.0775 H   0  0  0  0  0  0  0  0  0  0  0  0
   -2.4140   10.6415   -1.5478 H   0  0  0  0  0  0  0  0  0  0  0  0
   -1.7385    8.9771   -1.5478 H   0  0  0  0  0  0  0  0  0  0  0  0
    3.3910   11.8619   -2.9648 H   0  0  0  0  0  0  0  0  0  0  0  0
    1.8238   12.1371   -3.7984 H   0  0  0  0  0  0  0  0  0  0  0  0
    3.0789   13.4222   -3.7984 H   0  0  0  0  0  0  0  0  0  0  0  0
    3.7346   13.1230   -0.5474 H   0  0  0  0  0  0  0  0  0  0  0  0
    3.8266   14.3579   -1.9264 H   0  0  0  0  0  0  0  0  0  0  0  0
    2.3478   14.6314    0.7043 H   0  0  0  0  0  0  0  0  0  0  0  0
    3.7777   15.5643    0.1111 H   0  0  0  0  0  0  0  0  0  0  0  0
    3.5041   17.3270   -1.6931 H   0  0  0  0  0  0  0  0  0  0  0  0
    3.1346   15.8758   -2.6851 H   0  0  0  0  0  0  0  0  0  0  0  0
    2.0075   17.2744   -2.6851 H   0  0  0  0  0  0  0  0  0  0  0  0
  1  2  1  0
  2  3  1  0
  3  4  1  0
  4  5  1  0
  5  6  1  0
  6  7  1  0
  7  8  1  0
  7  9  1  0
  2 10  1  0
 10 11  1  0
 11 12  1  0
 12 13  1  0
 13 14  1  1
 13 15  1  0
 15 16  1  0
 16 17  1  0
 17 18  2  0
 18 19  1  0
 19 20  1  0
 20 21  1  0
 21 22  1  0
 22 23  1  0
 22 24  1  0
 24 25  1  0
 24 26  1  0
 19 27  1  0
 27 28  1  6
 27 29  1  0
 29 30  1  0
 30 31  1  0
 31 32  1  6
  7  5  1  0
 31 10  1  0
 31 13  1  0
 27 15  1  0
 24 18  1  0
  1 33  1  0
  1 34  1  0
  1 35  1  0
  2 36  1  1
  3 37  1  0
  3 38  1  0
  4 39  1  0
  4 40  1  0
  5 41  1  1
  8 42  1  0
  8 43  1  0
  8 44  1  0
  9 45  1  0
  9 46  1  0
  9 47  1  0
 10 48  1  1
 11 49  1  0
 11 50  1  0
 12 51  1  0
 12 52  1  0
 14 53  1  0
 14 54  1  0
 14 55  1  0
 15 56  1  6
 16 57  1  0
 16 58  1  0
 17 59  1  0
 19 60  1  1
 20 61  1  0
 20 62  1  0
 21 63  1  0
 21 64  1  0
 22 65  1  1
 23 66  1  0
 25 67  1  0
 25 68  1  0
 25 69  1  0
 26 70  1  0
 26 71  1  0
 26 72  1  0
 28 73  1  0
 28 74  1  0
 28 75  1  0
 29 76  1  0
 29 77  1  0
 30 78  1  0
 30 79  1  0
 32 80  1  0
 32 81  1  0
 32 82  1  0
M  END
>  <meeko>  (2) 
{"is_sidechain": [false], "intermolecular_energy": 2.731, "internal_energy": -0.839}

$$$$
EPH_relaxed_0001_pdb2pqr_Repair_128_r2_0001_out
     RDKit          3D

 82 86  0  0  0  0  0  0  0  0999 V2000
    1.2420   18.7640   -1.1670 C   0  0  0  0  0  0  0  0  0  0  0  0
    1.5380   17.4890   -0.3720 C   0  0  2  0  0  0  0  0  0  0  0  0
    3.0470   17.3010   -0.1160 C   0  0  0  0  0  0  0  0  0  0  0  0
    3.7680   18.5900    0.2880 C   0  0  0  0  0  0  0  0  0  0  0  0
    3.6150   18.8750    1.7510 C   0  0  2  0  0  0  0  0  0  0  0  0
    4.0110   20.1950    2.1480 O   0  0  0  0  0  0  0  0  0  0  0  0
    4.7880   19.1110    2.6840 C   0  0  0  0  0  0  0  0  0  0  0  0
    6.2000   19.0710    2.1890 C   0  0  0  0  0  0  0  0  0  0  0  0
    4.5890   18.8950    4.1520 C   0  0  0  0  0  0  0  0  0  0  0  0
    0.9790   16.2770   -1.1090 C   0  0  1  0  0  0  0  0  0  0  0  0
    0.9020   16.4940   -2.6440 C   0  0  0  0  0  0  0  0  0  0  0  0
    1.2040   15.1240   -3.3050 C   0  0  0  0  0  0  0  0  0  0  0  0
    1.1160   14.1040   -2.1460 C   0  0  1  0  0  0  0  0  0  0  0  0
   -0.4090   13.8260   -1.9710 C   0  0  0  0  0  0  0  0  0  0  0  0
    1.9280   12.7800   -2.3270 C   0  0  2  0  0  0  0  0  0  0  0  0
    1.4910   11.9050   -3.5150 C   0  0  0  0  0  0  0  0  0  0  0  0
    0.4410   10.8890   -3.2070 C   0  0  0  0  0  0  0  0  0  0  0  0
    0.0760   10.4920   -1.9740 C   0  0  0  0  0  0  0  0  0  0  0  0
    0.8100   11.0090   -0.7300 C   0  0  1  0  0  0  0  0  0  0  0  0
    1.1260    9.8210    0.2160 C   0  0  0  0  0  0  0  0  0  0  0  0
   -0.1150    9.0060    0.5670 C   0  0  0  0  0  0  0  0  0  0  0  0
   -0.7840    8.4600   -0.6920 C   0  0  2  0  0  0  0  0  0  0  0  0
    0.0870    7.5000   -1.2970 O   0  0  0  0  0  0  0  0  0  0  0  0
   -1.1410    9.5660   -1.7240 C   0  0  0  0  0  0  0  0  0  0  0  0
   -2.3050   10.4300   -1.1800 C   0  0  0  0  0  0  0  0  0  0  0  0
   -1.6780    8.8700   -3.0030 C   0  0  0  0  0  0  0  0  0  0  0  0
    2.0790   11.9250   -1.0040 C   0  0  1  0  0  0  0  0  0  0  0  0
    3.3460   11.0370   -1.1910 C   0  0  0  0  0  0  0  0  0  0  0  0
    2.3480   12.8230    0.2610 C   0  0  0  0  0  0  0  0  0  0  0  0
    1.6080   14.1730    0.3250 C   0  0  0  0  0  0  0  0  0  0  0  0
    1.7650   14.9470   -0.9880 C   0  0  2  0  0  0  0  0  0  0  0  0
    3.2880   15.2610   -1.1790 C   0  0  0  0  0  0  0  0  0  0  0  0
    1.0494   19.5937   -0.4709 H   0  0  0  0  0  0  0  0  0  0  0  0
    2.1069   19.0102   -1.8005 H   0  0  0  0  0  0  0  0  0  0  0  0
    0.3571   18.6039   -1.8005 H   0  0  0  0  0  0  0  0  0  0  0  0
    1.0477   17.5877    0.6077 H   0  0  0  0  0  0  0  0  0  0  0  0
    3.1732   16.5648    0.6915 H   0  0  0  0  0  0  0  0  0  0  0  0
    3.4945   16.9657   -1.0633 H   0  0  0  0  0  0  0  0  0  0  0  0
    4.8381   18.4881    0.0546 H   0  0  0  0  0  0  0  0  0  0  0  0
    3.3201   19.4237   -0.2726 H   0  0  0  0  0  0  0  0  0  0  0  0
    2.7446   18.2054    1.8150 H   0  0  0  0  0  0  0  0  0  0  0  0
    6.8887   19.0515    3.0465 H   0  0  0  0  0  0  0  0  0  0  0  0
    6.3490   18.1683    1.5784 H   0  0  0  0  0  0  0  0  0  0  0  0
    6.3999   19.9638    1.5784 H   0  0  0  0  0  0  0  0  0  0  0  0
    5.2293   19.5900    4.7150 H   0  0  0  0  0  0  0  0  0  0  0  0
    3.5352   19.0767    4.4098 H   0  0  0  0  0  0  0  0  0  0  0  0
    4.8563   17.8596    4.4098 H   0  0  0  0  0  0  0  0  0  0  0  0
    0.0058   16.1867   -0.6043 H   0  0  0  0  0  0  0  0  0  0  0  0
   -0.1034   16.8382   -2.9280 H   0  0  0  0  0  0  0  0  0  0  0  0
    1.6224   17.2580   -2.9716 H   0  0  0  0  0  0  0  0  0  0  0  0
    0.4592   14.8948   -4.0814 H   0  0  0  0  0  0  0  0  0  0  0  0
    2.1854   15.1076   -3.8015 H   0  0  0  0  0  0  0  0  0  0  0  0
   -0.6530   13.7815   -0.8993 H   0  0  0  0  0  0  0  0  0  0  0  0
   -0.9857   14.6338   -2.4451 H   0  0  0  0  0  0  0  0  0  0  0  0
   -0.6636   12.8666   -2.4451 H   0  0  0  0  0  0  0  0  0  0  0  0
    2.9314   13.1517   -2.5818 H   0  0  0  0  0  0  0  0  0  0  0  0
    1.1014   12.5689   -4.3008 H   0  0  0  0  0  0  0  0  0  0  0  0
    2.3830   11.3379   -3.8194 H   0  0  0  0  0  0  0  0  0  0  0  0
   -0.0777   10.4262   -4.0595 H   0  0  0  0  0  0  0  0  0  0  0  0
    0.1167   11.7055   -0.2358 H   0  0  0  0  0  0  0  0  0  0  0  0
    1.8534    9.1604   -0.2785 H   0  0  0  0  0  0  0  0  0  0  0  0
    1.5276   10.2372    1.1517 H   0  0  0  0  0  0  0  0  0  0  0  0
    0.1776    8.1649    1.2127 H   0  0  0  0  0  0  0  0  0  0  0  0
   -0.8290    9.6609    1.0879 H   0  0  0  0  0  0  0  0  0  0  0  0
   -1.7342    7.9972   -0.3871 H   0  0  0  0  0  0  0  0  0  0  0  0
    0.4300    6.9270   -0.5910 H   0  0  0  0  0  0  0  0  0  0  0  0
   -2.2881   10.4174   -0.0802 H   0  0  0  0  0  0  0  0  0  0  0  0
   -2.1916   11.4644   -1.5367 H   0  0  0  0  0  0  0  0  0  0  0  0
   -3.2623   10.0220   -1.5367 H   0  0  0  0  0  0  0  0  0  0  0  0
   -2.3270    8.0289   -2.7177 H   0  0  0  0  0  0  0  0  0  0  0  0
   -2.2549    9.5925   -3.5989 H   0  0  0  0  0  0  0  0  0  0  0  0
   -0.8327    8.4953   -3.5989 H   0  0  0  0  0  0  0  0  0  0  0  0
    3.7460   10.7567   -0.2054 H   0  0  0  0  0  0  0  0  0  0  0  0
    3.0777   10.1283   -1.7498 H   0  0  0  0  0  0  0  0  0  0  0  0
    4.1086   11.5993   -1.7498 H   0  0  0  0  0  0  0  0  0  0  0  0
    2.0581   12.2422    1.1491 H   0  0  0  0  0  0  0  0  0  0  0  0
    3.4157   13.0824    0.2080 H   0  0  0  0  0  0  0  0  0  0  0  0
    0.5392   13.9892    0.5088 H   0  0  0  0  0  0  0  0  0  0  0  0
    2.0411   14.7722    1.1394 H   0  0  0  0  0  0  0  0  0  0  0  0
    3.7683   15.3600   -0.1943 H   0  0  0  0  0  0  0  0  0  0  0  0
    3.7639   14.4421   -1.7384 H   0  0  0  0  0  0  0  0  0  0  0  0
    3.4012   16.2014   -1.7384 H   0  0  0  0  0  0  0  0  0  0  0  0
  1  2  1  0
  2  3  1  0
  3  4  1  0
  4  5  1  0
  5  6  1  0
  6  7  1  0
  7  8  1  0
  7  9  1  0
  2 10  1  0
 10 11  1  0
 11 12  1  0
 12 13  1  0
 13 14  1  1
 13 15  1  0
 15 16  1  0
 16 17  1  0
 17 18  2  0
 18 19  1  0
 19 20  1  0
 20 21  1  0
 21 22  1  0
 22 23  1  0
 22 24  1  0
 24 25  1  0
 24 26  1  0
 19 27  1  0
 27 28  1  6
 27 29  1  0
 29 30  1  0
 30 31  1  0
 31 32  1  6
  7  5  1  0
 31 10  1  0
 31 13  1  0
 27 15  1  0
 24 18  1  0
  1 33  1  0
  1 34  1  0
  1 35  1  0
  2 36  1  1
  3 37  1  0
  3 38  1  0
  4 39  1  0
  4 40  1  0
  5 41  1  1
  8 42  1  0
  8 43  1  0
  8 44  1  0
  9 45  1  0
  9 46  1  0
  9 47  1  0
 10 48  1  1
 11 49  1  0
 11 50  1  0
 12 51  1  0
 12 52  1  0
 14 53  1  0
 14 54  1  0
 14 55  1  0
 15 56  1  6
 16 57  1  0
 16 58  1  0
 17 59  1  0
 19 60  1  1
 20 61  1  0
 20 62  1  0
 21 63  1  0
 21 64  1  0
 22 65  1  1
 23 66  1  0
 25 67  1  0
 25 68  1  0
 25 69  1  0
 26 70  1  0
 26 71  1  0
 26 72  1  0
 28 73  1  0
 28 74  1  0
 28 75  1  0
 29 76  1  0
 29 77  1  0
 30 78  1  0
 30 79  1  0
 32 80  1  0
 32 81  1  0
 32 82  1  0
M  END
>  <meeko>  (3) 
{"is_sidechain": [false], "intermolecular_energy": 2.731, "internal_energy": -0.839}

$$$$
EPH_relaxed_0001_pdb2pqr_Repair_128_r2_0001_out
     RDKit          3D

 82 86  0  0  0  0  0  0  0  0999 V2000
    1.1130   18.6150   -1.3990 C   0  0  0  0  0  0  0  0  0  0  0  0
    0.4400   18.4420   -2.7640 C   0  0  2  0  0  0  0  0  0  0  0  0
   -0.8590   19.2650   -2.8790 C   0  0  0  0  0  0  0  0  0  0  0  0
   -1.2490   19.9830   -1.5840 C   0  0  0  0  0  0  0  0  0  0  0  0
   -2.0060   19.0810   -0.6570 C   0  0  2  0  0  0  0  0  0  0  0  0
   -2.4010   19.6890    0.5800 O   0  0  0  0  0  0  0  0  0  0  0  0
   -1.4610   18.6060    0.6770 C   0  0  0  0  0  0  0  0  0  0  0  0
   -0.1050   19.0190    1.1580 C   0  0  0  0  0  0  0  0  0  0  0  0
   -2.0350   17.3630    1.2830 C   0  0  0  0  0  0  0  0  0  0  0  0
    0.1450   16.9670   -3.0140 C   0  0  1  0  0  0  0  0  0  0  0  0
    0.1830   16.5980   -4.5210 C   0  0  0  0  0  0  0  0  0  0  0  0
    0.7520   15.1590   -4.6150 C   0  0  0  0  0  0  0  0  0  0  0  0
    0.7100   14.6280   -3.1630 C   0  0  1  0  0  0  0  0  0  0  0  0
   -0.7650   14.1660   -2.9470 C   0  0  0  0  0  0  0  0  0  0  0  0
    1.7270   13.4930   -2.8130 C   0  0  2  0  0  0  0  0  0  0  0  0
    1.5440   12.1860   -3.6030 C   0  0  0  0  0  0  0  0  0  0  0  0
    0.6370   11.1820   -2.9730 C   0  0  0  0  0  0  0  0  0  0  0  0
    0.2200   11.1980   -1.6930 C   0  0  0  0  0  0  0  0  0  0  0  0
    0.7450   12.2510   -0.7080 C   0  0  1  0  0  0  0  0  0  0  0  0
    1.1470   11.5600    0.6220 C   0  0  0  0  0  0  0  0  0  0  0  0
    0.0170   10.7210    1.2100 C   0  0  0  0  0  0  0  0  0  0  0  0
   -0.4380    9.6490    0.2240 C   0  0  2  0  0  0  0  0  0  0  0  0
    0.6230    8.7050    0.0470 O   0  0  0  0  0  0  0  0  0  0  0  0
   -0.8590   10.2260   -1.1570 C   0  0  0  0  0  0  0  0  0  0  0  0
   -2.1880   11.0070   -1.0110 C   0  0  0  0  0  0  0  0  0  0  0  0
   -1.1590    9.0310   -2.1020 C   0  0  0  0  0  0  0  0  0  0  0  0
    1.8800   13.2150   -1.2630 C   0  0  1  0  0  0  0  0  0  0  0  0
    3.2800   12.5580   -1.0640 C   0  0  0  0  0  0  0  0  0  0  0  0
    1.8870   14.5420   -0.4140 C   0  0  0  0  0  0  0  0  0  0  0  0
    0.9470   15.6700   -0.8810 C   0  0  0  0  0  0  0  0  0  0  0  0
    1.1090   15.9320   -2.3820 C   0  0  2  0  0  0  0  0  0  0  0  0
    2.5780   16.4200   -2.6260 C   0  0  0  0  0  0  0  0  0  0  0  0
    0.3790   18.4263   -0.6017 H   0  0  0  0  0  0  0  0  0  0  0  0
    1.9453   17.9016   -1.3075 H   0  0  0  0  0  0  0  0  0  0  0  0
    1.4981   19.6413   -1.3075 H   0  0  0  0  0  0  0  0  0  0  0  0
    1.1376   18.8170   -3.5273 H   0  0  0  0  0  0  0  0  0  0  0  0
   -0.7232   20.0200   -3.6674 H   0  0  0  0  0  0  0  0  0  0  0  0
   -1.6686   18.5573   -3.1108 H   0  0  0  0  0  0  0  0  0  0  0  0
   -0.3350   20.3280   -1.0784 H   0  0  0  0  0  0  0  0  0  0  0  0
   -1.8992   20.8312   -1.8444 H   0  0  0  0  0  0  0  0  0  0  0  0
   -2.4512   18.5420   -1.5063 H   0  0  0  0  0  0  0  0  0  0  0  0
   -0.0916   19.0231    2.2579 H   0  0  0  0  0  0  0  0  0  0  0  0
    0.6482   18.3095    0.7848 H   0  0  0  0  0  0  0  0  0  0  0  0
    0.1249   20.0279    0.7848 H   0  0  0  0  0  0  0  0  0  0  0  0
   -1.9996   17.4397    2.3798 H   0  0  0  0  0  0  0  0  0  0  0  0
   -3.0790   17.2446    0.9572 H   0  0  0  0  0  0  0  0  0  0  0  0
   -1.4482   16.4915    0.9572 H   0  0  0  0  0  0  0  0  0  0  0  0
   -0.8464   16.8945   -2.5431 H   0  0  0  0  0  0  0  0  0  0  0  0
   -0.8313   16.6327   -4.9452 H   0  0  0  0  0  0  0  0  0  0  0  0
    0.8065   17.3069   -5.0856 H   0  0  0  0  0  0  0  0  0  0  0  0
    0.1286   14.5371   -5.2742 H   0  0  0  0  0  0  0  0  0  0  0  0
    1.7673   15.1384   -5.0378 H   0  0  0  0  0  0  0  0  0  0  0  0
   -0.9746   14.1004   -1.8691 H   0  0  0  0  0  0  0  0  0  0  0  0
   -1.4485   14.8931   -3.4098 H   0  0  0  0  0  0  0  0  0  0  0  0
   -0.9116   13.1789   -3.4098 H   0  0  0  0  0  0  0  0  0  0  0  0
    2.6815   13.9181   -3.1567 H   0  0  0  0  0  0  0  0  0  0  0  0
    1.1345   12.4409   -4.5916 H   0  0  0  0  0  0  0  0  0  0  0  0
    2.5370   11.7146   -3.6457 H   0  0  0  0  0  0  0  0  0  0  0  0
    0.2787   10.3588   -3.6086 H   0  0  0  0  0  0  0  0  0  0  0  0
   -0.0897   12.9452   -0.5307 H   0  0  0  0  0  0  0  0  0  0  0  0
    2.0104   10.9053    0.4323 H   0  0  0  0  0  0  0  0  0  0  0  0
    1.3895   12.3495    1.3485 H   0  0  0  0  0  0  0  0  0  0  0  0
    0.3713   10.2354    2.1312 H   0  0  0  0  0  0  0  0  0  0  0  0
   -0.8348   11.3826    1.4263 H   0  0  0  0  0  0  0  0  0  0  0  0
   -1.3313    9.1679    0.6490 H   0  0  0  0  0  0  0  0  0  0  0  0
    1.3520    8.9680    0.6350 H   0  0  0  0  0  0  0  0  0  0  0  0
   -2.4184   11.1424    0.0560 H   0  0  0  0  0  0  0  0  0  0  0  0
   -2.0898   11.9911   -1.4927 H   0  0  0  0  0  0  0  0  0  0  0  0
   -2.9999   10.4424   -1.4927 H   0  0  0  0  0  0  0  0  0  0  0  0
   -1.3835    8.1366   -1.5022 H   0  0  0  0  0  0  0  0  0  0  0  0
   -2.0241    9.2736   -2.7366 H   0  0  0  0  0  0  0  0  0  0  0  0
   -0.2819    8.8362   -2.7366 H   0  0  0  0  0  0  0  0  0  0  0  0
    3.4894   12.4597    0.0114 H   0  0  0  0  0  0  0  0  0  0  0  0
    3.2876   11.5623   -1.5315 H   0  0  0  0  0  0  0  0  0  0  0  0
    4.0507   13.1885   -1.5315 H   0  0  0  0  0  0  0  0  0  0  0  0
    1.6055   14.2794    0.6164 H   0  0  0  0  0  0  0  0  0  0  0  0
    2.9028   14.9493   -0.5246 H   0  0  0  0  0  0  0  0  0  0  0  0
   -0.0939   15.3788   -0.6767 H   0  0  0  0  0  0  0  0  0  0  0  0
    1.2036   16.5895   -0.3345 H   0  0  0  0  0  0  0  0  0  0  0  0
    3.0750   16.5851   -1.6586 H   0  0  0  0  0  0  0  0  0  0  0  0
    3.1283   15.6564   -3.1953 H   0  0  0  0  0  0  0  0  0  0  0  0
    2.5620   17.3611   -3.1953 H   0  0  0  0  0  0  0  0  0  0  0  0
  1  2  1  0
  2  3  1  0
  3  4  1  0
  4  5  1  0
  5  6  1  0
  6  7  1  0
  7  8  1  0
  7  9  1  0
  2 10  1  0
 10 11  1  0
 11 12  1  0
 12 13  1  0
 13 14  1  1
 13 15  1  0
 15 16  1  0
 16 17  1  0
 17 18  2  0
 18 19  1  0
 19 20  1  0
 20 21  1  0
 21 22  1  0
 22 23  1  0
 22 24  1  0
 24 25  1  0
 24 26  1  0
 19 27  1  0
 27 28  1  6
 27 29  1  0
 29 30  1  0
 30 31  1  0
 31 32  1  1
  7  5  1  0
 31 10  1  0
 31 13  1  0
 27 15  1  0
 24 18  1  0
  1 33  1  0
  1 34  1  0
  1 35  1  0
  2 36  1  6
  3 37  1  0
  3 38  1  0
  4 39  1  0
  4 40  1  0
  5 41  1  6
  8 42  1  0
  8 43  1  0
  8 44  1  0
  9 45  1  0
  9 46  1  0
  9 47  1  0
 10 48  1  1
 11 49  1  0
 11 50  1  0
 12 51  1  0
 12 52  1  0
 14 53  1  0
 14 54  1  0
 14 55  1  0
 15 56  1  6
 16 57  1  0
 16 58  1  0
 17 59  1  0
 19 60  1  1
 20 61  1  0
 20 62  1  0
 21 63  1  0
 21 64  1  0
 22 65  1  1
 23 66  1  0
 25 67  1  0
 25 68  1  0
 25 69  1  0
 26 70  1  0
 26 71  1  0
 26 72  1  0
 28 73  1  0
 28 74  1  0
 28 75  1  0
 29 76  1  0
 29 77  1  0
 30 78  1  0
 30 79  1  0
 32 80  1  0
 32 81  1  0
 32 82  1  0
M  END
>  <meeko>  (4) 
{"is_sidechain": [false], "intermolecular_energy": 2.731, "internal_energy": -0.839}

$$$$
EPH_relaxed_0001_pdb2pqr_Repair_128_r2_0001_out
     RDKit          3D

 82 86  0  0  0  0  0  0  0  0999 V2000
    1.9630   18.2340   -2.5490 C   0  0  0  0  0  0  0  0  0  0  0  0
    0.4480   18.0260   -2.6310 C   0  0  2  0  0  0  0  0  0  0  0  0
   -0.2700   18.4740   -1.3420 C   0  0  0  0  0  0  0  0  0  0  0  0
    0.4320   18.0230   -0.0580 C   0  0  0  0  0  0  0  0  0  0  0  0
    1.0180   19.1820    0.6900 C   0  0  2  0  0  0  0  0  0  0  0  0
    1.8970   20.0100   -0.0820 O   0  0  0  0  0  0  0  0  0  0  0  0
    2.4930   19.3060    1.0190 C   0  0  0  0  0  0  0  0  0  0  0  0
    3.4750   18.2530    0.6090 C   0  0  0  0  0  0  0  0  0  0  0  0
    2.9020   20.1940    2.1530 C   0  0  0  0  0  0  0  0  0  0  0  0
    0.1400   16.5610   -2.9170 C   0  0  1  0  0  0  0  0  0  0  0  0
    0.2040   16.2210   -4.4300 C   0  0  0  0  0  0  0  0  0  0  0  0
    0.7560   14.7760   -4.5400 C   0  0  0  0  0  0  0  0  0  0  0  0
    0.6760   14.2170   -3.1000 C   0  0  1  0  0  0  0  0  0  0  0  0
   -0.8100   13.7710   -2.9250 C   0  0  0  0  0  0  0  0  0  0  0  0
    1.6700   13.0620   -2.7510 C   0  0  2  0  0  0  0  0  0  0  0  0
    1.4860   11.7730   -3.5710 C   0  0  0  0  0  0  0  0  0  0  0  0
    0.5530   10.7690   -2.9810 C   0  0  0  0  0  0  0  0  0  0  0  0
    0.1090   10.7660   -1.7100 C   0  0  0  0  0  0  0  0  0  0  0  0
    0.6260   11.7920   -0.6930 C   0  0  1  0  0  0  0  0  0  0  0  0
    0.9910   11.0700    0.6310 C   0  0  0  0  0  0  0  0  0  0  0  0
   -0.1630   10.2350    1.1790 C   0  0  0  0  0  0  0  0  0  0  0  0
   -0.6110    9.1890    0.1620 C   0  0  2  0  0  0  0  0  0  0  0  0
    0.4410    8.2340   -0.0110 O   0  0  0  0  0  0  0  0  0  0  0  0
   -0.9950    9.7990   -1.2160 C   0  0  0  0  0  0  0  0  0  0  0  0
   -2.3160   10.5950   -1.0820 C   0  0  0  0  0  0  0  0  0  0  0  0
   -1.2910    8.6270   -2.1910 C   0  0  0  0  0  0  0  0  0  0  0  0
    1.7860   12.7510   -1.2040 C   0  0  1  0  0  0  0  0  0  0  0  0
    3.1720   12.0710   -0.9890 C   0  0  0  0  0  0  0  0  0  0  0  0
    1.7930   14.0600   -0.3300 C   0  0  0  0  0  0  0  0  0  0  0  0
    0.8780   15.2100   -0.7940 C   0  0  0  0  0  0  0  0  0  0  0  0
    1.0750   15.5000   -2.2850 C   0  0  2  0  0  0  0  0  0  0  0  0
    2.5550   15.9720   -2.4890 C   0  0  0  0  0  0  0  0  0  0  0  0
    2.2707   18.2762   -1.4938 H   0  0  0  0  0  0  0  0  0  0  0  0
    2.4754   17.3978   -3.0472 H   0  0  0  0  0  0  0  0  0  0  0  0
    2.2311   19.1774   -3.0472 H   0  0  0  0  0  0  0  0  0  0  0  0
    0.0714   18.6525   -3.4530 H   0  0  0  0  0  0  0  0  0  0  0  0
   -0.3261   19.5726   -1.3396 H   0  0  0  0  0  0  0  0  0  0  0  0
   -1.2641   18.0030   -1.3474 H   0  0  0  0  0  0  0  0  0  0  0  0
   -0.2988   17.5146    0.5881 H   0  0  0  0  0  0  0  0  0  0  0  0
    1.2520   17.3444   -0.3358 H   0  0  0  0  0  0  0  0  0  0  0  0
    0.1140   19.2681    1.3108 H   0  0  0  0  0  0  0  0  0  0  0  0
    3.9092   17.7874    1.5060 H   0  0  0  0  0  0  0  0  0  0  0  0
    2.9618   17.4864    0.0099 H   0  0  0  0  0  0  0  0  0  0  0  0
    4.2755   18.7115    0.0099 H   0  0  0  0  0  0  0  0  0  0  0  0
    2.6736   19.6980    3.1079 H   0  0  0  0  0  0  0  0  0  0  0  0
    3.9822   20.3925    2.0921 H   0  0  0  0  0  0  0  0  0  0  0  0
    2.3507   21.1439    2.0921 H   0  0  0  0  0  0  0  0  0  0  0  0
   -0.8621   16.4933   -2.4684 H   0  0  0  0  0  0  0  0  0  0  0  0
   -0.8008   16.2776   -4.8739 H   0  0  0  0  0  0  0  0  0  0  0  0
    0.8480   16.9322   -4.9681 H   0  0  0  0  0  0  0  0  0  0  0  0
    0.1388   14.1756   -5.2245 H   0  0  0  0  0  0  0  0  0  0  0  0
    1.7799   14.7500   -4.9412 H   0  0  0  0  0  0  0  0  0  0  0  0
   -1.0476   13.6997   -1.8533 H   0  0  0  0  0  0  0  0  0  0  0  0
   -1.4728   14.5098   -3.3992 H   0  0  0  0  0  0  0  0  0  0  0  0
   -0.9565   12.7893   -3.3992 H   0  0  0  0  0  0  0  0  0  0  0  0
    2.6373   13.4810   -3.0653 H   0  0  0  0  0  0  0  0  0  0  0  0
    1.1008   12.0532   -4.5625 H   0  0  0  0  0  0  0  0  0  0  0  0
    2.4733   11.2890   -3.6020 H   0  0  0  0  0  0  0  0  0  0  0  0
    0.1980    9.9632   -3.6403 H   0  0  0  0  0  0  0  0  0  0  0  0
   -0.2038   12.4931   -0.5199 H   0  0  0  0  0  0  0  0  0  0  0  0
    1.8493   10.4073    0.4463 H   0  0  0  0  0  0  0  0  0  0  0  0
    1.2291   11.8418    1.3778 H   0  0  0  0  0  0  0  0  0  0  0  0
    0.1651    9.7265    2.0976 H   0  0  0  0  0  0  0  0  0  0  0  0
   -1.0103   10.9037    1.3910 H   0  0  0  0  0  0  0  0  0  0  0  0
   -1.5196    8.7119    0.5579 H   0  0  0  0  0  0  0  0  0  0  0  0
    1.1380    8.6570   -0.5400 H   0  0  0  0  0  0  0  0  0  0  0  0
   -2.5520   10.7372   -0.0171 H   0  0  0  0  0  0  0  0  0  0  0  0
   -2.2038   11.5760   -1.5669 H   0  0  0  0  0  0  0  0  0  0  0  0
   -3.1309   10.0374   -1.5669 H   0  0  0  0  0  0  0  0  0  0  0  0
   -1.5203    7.7190   -1.6140 H   0  0  0  0  0  0  0  0  0  0  0  0
   -2.1520    8.8859   -2.8248 H   0  0  0  0  0  0  0  0  0  0  0  0
   -0.4104    8.4460   -2.8248 H   0  0  0  0  0  0  0  0  0  0  0  0
    3.3696   11.9741    0.0888 H   0  0  0  0  0  0  0  0  0  0  0  0
    3.1666   11.0732   -1.4520 H   0  0  0  0  0  0  0  0  0  0  0  0
    3.9579   12.6859   -1.4520 H   0  0  0  0  0  0  0  0  0  0  0  0
    1.4866   13.7814    0.6891 H   0  0  0  0  0  0  0  0  0  0  0  0
    2.8162   14.4553   -0.4118 H   0  0  0  0  0  0  0  0  0  0  0  0
   -0.1708   14.9289   -0.6176 H   0  0  0  0  0  0  0  0  0  0  0  0
    1.1353   16.1148   -0.2238 H   0  0  0  0  0  0  0  0  0  0  0  0
    3.0300   16.1235   -1.5085 H   0  0  0  0  0  0  0  0  0  0  0  0
    3.1099   15.2063   -3.0509 H   0  0  0  0  0  0  0  0  0  0  0  0
    2.5641   16.9176   -3.0509 H   0  0  0  0  0  0  0  0  0  0  0  0
  1  2  1  0
  2  3  1  0
  3  4  1  0
  4  5  1  0
  5  6  1  0
  6  7  1  0
  7  8  1  0
  7  9  1  0
  2 10  1  0
 10 11  1  0
 11 12  1  0
 12 13  1  0
 13 14  1  1
 13 15  1  0
 15 16  1  0
 16 17  1  0
 17 18  2  0
 18 19  1  0
 19 20  1  0
 20 21  1  0
 21 22  1  0
 22 23  1  0
 22 24  1  0
 24 25  1  0
 24 26  1  0
 19 27  1  0
 27 28  1  6
 27 29  1  0
 29 30  1  0
 30 31  1  0
 31 32  1  1
  7  5  1  0
 31 10  1  0
 31 13  1  0
 27 15  1  0
 24 18  1  0
  1 33  1  0
  1 34  1  0
  1 35  1  0
  2 36  1  6
  3 37  1  0
  3 38  1  0
  4 39  1  0
  4 40  1  0
  5 41  1  1
  8 42  1  0
  8 43  1  0
  8 44  1  0
  9 45  1  0
  9 46  1  0
  9 47  1  0
 10 48  1  1
 11 49  1  0
 11 50  1  0
 12 51  1  0
 12 52  1  0
 14 53  1  0
 14 54  1  0
 14 55  1  0
 15 56  1  6
 16 57  1  0
 16 58  1  0
 17 59  1  0
 19 60  1  1
 20 61  1  0
 20 62  1  0
 21 63  1  0
 21 64  1  0
 22 65  1  1
 23 66  1  0
 25 67  1  0
 25 68  1  0
 25 69  1  0
 26 70  1  0
 26 71  1  0
 26 72  1  0
 28 73  1  0
 28 74  1  0
 28 75  1  0
 29 76  1  0
 29 77  1  0
 30 78  1  0
 30 79  1  0
 32 80  1  0
 32 81  1  0
 32 82  1  0
M  END
>  <meeko>  (5) 
{"is_sidechain": [false], "intermolecular_energy": 2.731, "internal_energy": -0.839}

$$$$
EPH_relaxed_0001_pdb2pqr_Repair_128_r2_0001_out
     RDKit          3D

 82 86  0  0  0  0  0  0  0  0999 V2000
    0.8170   18.9930   -3.2340 C   0  0  0  0  0  0  0  0  0  0  0  0
    0.4460   18.1520   -2.0100 C   0  0  2  0  0  0  0  0  0  0  0  0
    1.5420   18.1880   -0.9260 C   0  0  0  0  0  0  0  0  0  0  0  0
    1.1240   18.9270    0.3480 C   0  0  0  0  0  0  0  0  0  0  0  0
   -0.0780   19.7930    0.1180 C   0  0  2  0  0  0  0  0  0  0  0  0
   -0.7990   20.1440    1.3050 O   0  0  0  0  0  0  0  0  0  0  0  0
   -1.5020   19.3270    0.3550 C   0  0  0  0  0  0  0  0  0  0  0  0
   -1.8000   17.9440    0.8430 C   0  0  0  0  0  0  0  0  0  0  0  0
   -2.6150   20.0410   -0.3470 C   0  0  0  0  0  0  0  0  0  0  0  0
    0.1770   16.7120   -2.4300 C   0  0  1  0  0  0  0  0  0  0  0  0
    0.3330   16.4970   -3.9600 C   0  0  0  0  0  0  0  0  0  0  0  0
    0.9120   15.0720   -4.1550 C   0  0  0  0  0  0  0  0  0  0  0  0
    0.7600   14.3970   -2.7720 C   0  0  1  0  0  0  0  0  0  0  0  0
   -0.7260   13.9220   -2.7190 C   0  0  0  0  0  0  0  0  0  0  0  0
    1.7510   13.2280   -2.4610 C   0  0  2  0  0  0  0  0  0  0  0  0
    1.6340   12.0080   -3.3920 C   0  0  0  0  0  0  0  0  0  0  0  0
    0.6840   10.9490   -2.9390 C   0  0  0  0  0  0  0  0  0  0  0  0
    0.1690   10.8380   -1.7000 C   0  0  0  0  0  0  0  0  0  0  0  0
    0.6120   11.7830   -0.5750 C   0  0  1  0  0  0  0  0  0  0  0  0
    0.9120   10.9590    0.7040 C   0  0  0  0  0  0  0  0  0  0  0  0
   -0.2570   10.0700    1.1160 C   0  0  0  0  0  0  0  0  0  0  0  0
   -0.6300    9.1050   -0.0070 C   0  0  2  0  0  0  0  0  0  0  0  0
    0.4440    8.1790   -0.1960 O   0  0  0  0  0  0  0  0  0  0  0  0
   -0.9450    9.8210   -1.3510 C   0  0  0  0  0  0  0  0  0  0  0  0
   -2.2840   10.5890   -1.2300 C   0  0  0  0  0  0  0  0  0  0  0  0
   -1.1670    8.7300   -2.4320 C   0  0  0  0  0  0  0  0  0  0  0  0
    1.7830   12.7930   -0.9400 C   0  0  1  0  0  0  0  0  0  0  0  0
    3.1660   12.1130   -0.7010 C   0  0  0  0  0  0  0  0  0  0  0  0
    1.7200   14.0270    0.0370 C   0  0  0  0  0  0  0  0  0  0  0  0
    0.8160   15.2010   -0.3850 C   0  0  0  0  0  0  0  0  0  0  0  0
    1.0920   15.6130   -1.8330 C   0  0  2  0  0  0  0  0  0  0  0  0
    2.5740   16.1170   -1.9130 C   0  0  0  0  0  0  0  0  0  0  0  0
    1.2406   19.9532   -2.9044 H   0  0  0  0  0  0  0  0  0  0  0  0
    1.5603   18.4526   -3.8386 H   0  0  0  0  0  0  0  0  0  0  0  0
   -0.0832   19.1776   -3.8386 H   0  0  0  0  0  0  0  0  0  0  0  0
   -0.4646   18.5883   -1.5736 H   0  0  0  0  0  0  0  0  0  0  0  0
    1.7996   17.1527   -0.6582 H   0  0  0  0  0  0  0  0  0  0  0  0
    2.3957   18.7368   -1.3503 H   0  0  0  0  0  0  0  0  0  0  0  0
    0.8869   18.1878    1.1273 H   0  0  0  0  0  0  0  0  0  0  0  0
    1.9580   19.5736    0.6585 H   0  0  0  0  0  0  0  0  0  0  0  0
    0.4063   20.2769   -0.7430 H   0  0  0  0  0  0  0  0  0  0  0  0
   -1.8018   17.9357    1.9430 H   0  0  0  0  0  0  0  0  0  0  0  0
   -2.7866   17.6290    0.4724 H   0  0  0  0  0  0  0  0  0  0  0  0
   -1.0306   17.2507    0.4724 H   0  0  0  0  0  0  0  0  0  0  0  0
   -3.2969   20.4784    0.3971 H   0  0  0  0  0  0  0  0  0  0  0  0
   -2.1980   20.8405   -0.9769 H   0  0  0  0  0  0  0  0  0  0  0  0
   -3.1679   19.3286   -0.9769 H   0  0  0  0  0  0  0  0  0  0  0  0
   -0.8477   16.5971   -2.0468 H   0  0  0  0  0  0  0  0  0  0  0  0
   -0.6455   16.5794   -4.4558 H   0  0  0  0  0  0  0  0  0  0  0  0
    0.9963   17.2563   -4.3998 H   0  0  0  0  0  0  0  0  0  0  0  0
    0.3431   14.5229   -4.9198 H   0  0  0  0  0  0  0  0  0  0  0  0
    1.9569   15.0895   -4.4982 H   0  0  0  0  0  0  0  0  0  0  0  0
   -1.0415   13.8211   -1.6701 H   0  0  0  0  0  0  0  0  0  0  0  0
   -1.3653   14.6606   -3.2248 H   0  0  0  0  0  0  0  0  0  0  0  0
   -0.8184   12.9496   -3.2248 H   0  0  0  0  0  0  0  0  0  0  0  0
    2.7280   13.6815   -2.6841 H   0  0  0  0  0  0  0  0  0  0  0  0
    1.3014   12.3637   -4.3783 H   0  0  0  0  0  0  0  0  0  0  0  0
    2.6289   11.5389   -3.4055 H   0  0  0  0  0  0  0  0  0  0  0  0
    0.3790   10.1957   -3.6803 H   0  0  0  0  0  0  0  0  0  0  0  0
   -0.2363   12.4591   -0.3925 H   0  0  0  0  0  0  0  0  0  0  0  0
    1.7893   10.3227    0.5156 H   0  0  0  0  0  0  0  0  0  0  0  0
    1.0952   11.6698    1.5232 H   0  0  0  0  0  0  0  0  0  0  0  0
    0.0269    9.4922    2.0079 H   0  0  0  0  0  0  0  0  0  0  0  0
   -1.1254   10.7094    1.3328 H   0  0  0  0  0  0  0  0  0  0  0  0
   -1.5518    8.5872    0.2965 H   0  0  0  0  0  0  0  0  0  0  0  0
    0.1060    7.2910    0.0070 H   0  0  0  0  0  0  0  0  0  0  0  0
   -2.5308   10.7305   -0.1674 H   0  0  0  0  0  0  0  0  0  0  0  0
   -2.1894   11.5701   -1.7183 H   0  0  0  0  0  0  0  0  0  0  0  0
   -3.0831   10.0119   -1.7183 H   0  0  0  0  0  0  0  0  0  0  0  0
   -1.3635    7.7643   -1.9434 H   0  0  0  0  0  0  0  0  0  0  0  0
   -2.0275    9.0053   -3.0595 H   0  0  0  0  0  0  0  0  0  0  0  0
   -0.2673    8.6471   -3.0595 H   0  0  0  0  0  0  0  0  0  0  0  0
    3.3485   12.0233    0.3800 H   0  0  0  0  0  0  0  0  0  0  0  0
    3.1662   11.1121   -1.1572 H   0  0  0  0  0  0  0  0  0  0  0  0
    3.9588   12.7240   -1.1572 H   0  0  0  0  0  0  0  0  0  0  0  0
    1.3599   13.6628    1.0105 H   0  0  0  0  0  0  0  0  0  0  0  0
    2.7401   14.4383    0.0477 H   0  0  0  0  0  0  0  0  0  0  0  0
   -0.2367   14.8957   -0.2923 H   0  0  0  0  0  0  0  0  0  0  0  0
    1.0276   16.0591    0.2699 H   0  0  0  0  0  0  0  0  0  0  0  0
    2.9708   16.2519   -0.8960 H   0  0  0  0  0  0  0  0  0  0  0  0
    3.1848   15.3761   -2.4496 H   0  0  0  0  0  0  0  0  0  0  0  0
    2.6065   17.0767   -2.4496 H   0  0  0  0  0  0  0  0  0  0  0  0
  1  2  1  0
  2  3  1  0
  3  4  1  0
  4  5  1  0
  5  6  1  0
  6  7  1  0
  7  8  1  0
  7  9  1  0
  2 10  1  0
 10 11  1  0
 11 12  1  0
 12 13  1  0
 13 14  1  1
 13 15  1  0
 15 16  1  0
 16 17  1  0
 17 18  2  0
 18 19  1  0
 19 20  1  0
 20 21  1  0
 21 22  1  0
 22 23  1  0
 22 24  1  0
 24 25  1  0
 24 26  1  0
 19 27  1  0
 27 28  1  6
 27 29  1  0
 29 30  1  0
 30 31  1  0
 31 32  1  1
  7  5  1  0
 31 10  1  0
 31 13  1  0
 27 15  1  0
 24 18  1  0
  1 33  1  0
  1 34  1  0
  1 35  1  0
  2 36  1  1
  3 37  1  0
  3 38  1  0
  4 39  1  0
  4 40  1  0
  5 41  1  6
  8 42  1  0
  8 43  1  0
  8 44  1  0
  9 45  1  0
  9 46  1  0
  9 47  1  0
 10 48  1  1
 11 49  1  0
 11 50  1  0
 12 51  1  0
 12 52  1  0
 14 53  1  0
 14 54  1  0
 14 55  1  0
 15 56  1  6
 16 57  1  0
 16 58  1  0
 17 59  1  0
 19 60  1  1
 20 61  1  0
 20 62  1  0
 21 63  1  0
 21 64  1  0
 22 65  1  1
 23 66  1  0
 25 67  1  0
 25 68  1  0
 25 69  1  0
 26 70  1  0
 26 71  1  0
 26 72  1  0
 28 73  1  0
 28 74  1  0
 28 75  1  0
 29 76  1  0
 29 77  1  0
 30 78  1  0
 30 79  1  0
 32 80  1  0
 32 81  1  0
 32 82  1  0
M  END
>  <meeko>  (6) 
{"is_sidechain": [false], "intermolecular_energy": 2.731, "internal_energy": -0.839}

$$$$
EPH_relaxed_0001_pdb2pqr_Repair_128_r2_0001_out
     RDKit          3D

 82 86  0  0  0  0  0  0  0  0999 V2000
    3.7530   17.7010    0.8470 C   0  0  0  0  0  0  0  0  0  0  0  0
    2.8480   18.0650   -0.3330 C   0  0  2  0  0  0  0  0  0  0  0  0
    2.1650   19.4340   -0.1410 C   0  0  0  0  0  0  0  0  0  0  0  0
    1.0710   19.4310    0.9300 C   0  0  0  0  0  0  0  0  0  0  0  0
   -0.2000   20.0450    0.4260 C   0  0  2  0  0  0  0  0  0  0  0  0
   -1.2280   20.1920    1.4150 O   0  0  0  0  0  0  0  0  0  0  0  0
   -1.5140   19.2920    0.3320 C   0  0  0  0  0  0  0  0  0  0  0  0
   -1.6220   17.8570    0.7460 C   0  0  0  0  0  0  0  0  0  0  0  0
   -2.5620   19.7960   -0.6100 C   0  0  0  0  0  0  0  0  0  0  0  0
    1.7950   16.9810   -0.5340 C   0  0  1  0  0  0  0  0  0  0  0  0
    0.5640   17.4850   -1.3340 C   0  0  0  0  0  0  0  0  0  0  0  0
    0.0750   16.2950   -2.1990 C   0  0  0  0  0  0  0  0  0  0  0  0
    0.8210   15.0660   -1.6280 C   0  0  1  0  0  0  0  0  0  0  0  0
    0.0010   14.6490   -0.3670 C   0  0  0  0  0  0  0  0  0  0  0  0
    1.0230   13.8640   -2.6080 C   0  0  2  0  0  0  0  0  0  0  0  0
   -0.2740   13.2060   -3.1100 C   0  0  0  0  0  0  0  0  0  0  0  0
   -0.7810   12.0770   -2.2760 C   0  0  0  0  0  0  0  0  0  0  0  0
   -0.0760   11.4230   -1.3330 C   0  0  0  0  0  0  0  0  0  0  0  0
    1.4050   11.7410   -1.0950 C   0  0  1  0  0  0  0  0  0  0  0  0
    2.2100   10.4180   -0.9990 C   0  0  0  0  0  0  0  0  0  0  0  0
    1.6430    9.4630    0.0470 C   0  0  0  0  0  0  0  0  0  0  0  0
    0.1860    9.1250   -0.2560 C   0  0  2  0  0  0  0  0  0  0  0  0
    0.1310    8.3660   -1.4680 O   0  0  0  0  0  0  0  0  0  0  0  0
   -0.7210   10.3820   -0.3860 C   0  0  0  0  0  0  0  0  0  0  0  0
   -0.9030   11.0370    1.0050 C   0  0  0  0  0  0  0  0  0  0  0  0
   -2.1310    9.9090   -0.8310 C   0  0  0  0  0  0  0  0  0  0  0  0
    2.0610   12.7830   -2.1010 C   0  0  1  0  0  0  0  0  0  0  0  0
    2.5850   12.0410   -3.3680 C   0  0  0  0  0  0  0  0  0  0  0  0
    3.3200   13.4360   -1.4170 C   0  0  0  0  0  0  0  0  0  0  0  0
    3.0710   14.6910   -0.5580 C   0  0  0  0  0  0  0  0  0  0  0  0
    2.2190   15.7130   -1.3160 C   0  0  2  0  0  0  0  0  0  0  0  0
    3.0280   16.1680   -2.5790 C   0  0  0  0  0  0  0  0  0  0  0  0
    3.2281   17.9121    1.7904 H   0  0  0  0  0  0  0  0  0  0  0  0
    4.0054   16.6314    0.7992 H   0  0  0  0  0  0  0  0  0  0  0  0
    4.6757   18.2980    0.7992 H   0  0  0  0  0  0  0  0  0  0  0  0
    3.4839   18.1364   -1.2278 H   0  0  0  0  0  0  0  0  0  0  0  0
    2.9322   20.1673    0.1482 H   0  0  0  0  0  0  0  0  0  0  0  0
    1.6802   19.6881   -1.0951 H   0  0  0  0  0  0  0  0  0  0  0  0
    0.8701   18.3924    1.2314 H   0  0  0  0  0  0  0  0  0  0  0  0
    1.4251   20.0277    1.7835 H   0  0  0  0  0  0  0  0  0  0  0  0
    0.3558   20.6527   -0.3032 H   0  0  0  0  0  0  0  0  0  0  0  0
   -1.6269   17.7915    1.8440 H   0  0  0  0  0  0  0  0  0  0  0  0
   -2.5548   17.4301    0.3490 H   0  0  0  0  0  0  0  0  0  0  0  0
   -0.7636   17.2953    0.3490 H   0  0  0  0  0  0  0  0  0  0  0  0
   -3.4071   20.2024   -0.0349 H   0  0  0  0  0  0  0  0  0  0  0  0
   -2.1354   20.5874   -1.2437 H   0  0  0  0  0  0  0  0  0  0  0  0
   -2.9139   18.9686   -1.2437 H   0  0  0  0  0  0  0  0  0  0  0  0
    1.5924   16.7244    0.5163 H   0  0  0  0  0  0  0  0  0  0  0  0
   -0.2313   17.8039   -0.6443 H   0  0  0  0  0  0  0  0  0  0  0  0
    0.8280   18.3481   -1.9628 H   0  0  0  0  0  0  0  0  0  0  0  0
   -1.0134   16.1673   -2.1042 H   0  0  0  0  0  0  0  0  0  0  0  0
    0.2777   16.4461   -3.2696 H   0  0  0  0  0  0  0  0  0  0  0  0
    0.5552   14.9308    0.5404 H   0  0  0  0  0  0  0  0  0  0  0  0
   -0.9722   15.1617   -0.3764 H   0  0  0  0  0  0  0  0  0  0  0  0
   -0.1579   13.5606   -0.3764 H   0  0  0  0  0  0  0  0  0  0  0  0
    1.4709   14.3492   -3.4877 H   0  0  0  0  0  0  0  0  0  0  0  0
   -1.0554   13.9794   -3.1461 H   0  0  0  0  0  0  0  0  0  0  0  0
   -0.0351   12.7743   -4.0931 H   0  0  0  0  0  0  0  0  0  0  0  0
   -1.8179   11.7515   -2.4458 H   0  0  0  0  0  0  0  0  0  0  0  0
    1.4506   12.2761   -0.1350 H   0  0  0  0  0  0  0  0  0  0  0  0
    2.1884    9.9201   -1.9796 H   0  0  0  0  0  0  0  0  0  0  0  0
    3.2366   10.6729   -0.6970 H   0  0  0  0  0  0  0  0  0  0  0  0
    2.2352    8.5360    0.0467 H   0  0  0  0  0  0  0  0  0  0  0  0
    1.6928    9.9509    1.0316 H   0  0  0  0  0  0  0  0  0  0  0  0
   -0.2012    8.5449    0.5946 H   0  0  0  0  0  0  0  0  0  0  0  0
    0.5230    8.9080   -2.1730 H   0  0  0  0  0  0  0  0  0  0  0  0
   -0.6966   10.2944    1.7898 H   0  0  0  0  0  0  0  0  0  0  0  0
   -0.2055   11.8815    1.1067 H   0  0  0  0  0  0  0  0  0  0  0  0
   -1.9362   11.4005    1.1067 H   0  0  0  0  0  0  0  0  0  0  0  0
   -2.7459    9.7027    0.0575 H   0  0  0  0  0  0  0  0  0  0  0  0
   -2.6088   10.6961   -1.4329 H   0  0  0  0  0  0  0  0  0  0  0  0
   -2.0375    8.9930   -1.4329 H   0  0  0  0  0  0  0  0  0  0  0  0
    3.1944   11.1780   -3.0617 H   0  0  0  0  0  0  0  0  0  0  0  0
    1.7315   11.6926   -3.9681 H   0  0  0  0  0  0  0  0  0  0  0  0
    3.1988   12.7288   -3.9681 H   0  0  0  0  0  0  0  0  0  0  0  0
    3.7790   12.6748   -0.7690 H   0  0  0  0  0  0  0  0  0  0  0  0
    3.9547   13.7772   -2.2481 H   0  0  0  0  0  0  0  0  0  0  0  0
    2.5468   14.3982    0.3636 H   0  0  0  0  0  0  0  0  0  0  0  0
    4.0412   15.1510   -0.3191 H   0  0  0  0  0  0  0  0  0  0  0  0
    3.9456   16.6841   -2.2603 H   0  0  0  0  0  0  0  0  0  0  0  0
    3.2933   15.2868   -3.1815 H   0  0  0  0  0  0  0  0  0  0  0  0
    2.4128   16.8524   -3.1815 H   0  0  0  0  0  0  0  0  0  0  0  0
  1  2  1  0
  2  3  1  0
  3  4  1  0
  4  5  1  0
  5  6  1  0
  6  7  1  0
  7  8  1  0
  7  9  1  0
  2 10  1  0
 10 11  1  0
 11 12  1  0
 12 13  1  0
 13 14  1  1
 13 15  1  0
 15 16  1  0
 16 17  1  0
 17 18  2  0
 18 19  1  0
 19 20  1  0
 20 21  1  0
 21 22  1  0
 22 23  1  0
 22 24  1  0
 24 25  1  0
 24 26  1  0
 19 27  1  0
 27 28  1  6
 27 29  1  0
 29 30  1  0
 30 31  1  0
 31 32  1  6
  7  5  1  0
 31 10  1  0
 31 13  1  0
 27 15  1  0
 24 18  1  0
  1 33  1  0
  1 34  1  0
  1 35  1  0
  2 36  1  6
  3 37  1  0
  3 38  1  0
  4 39  1  0
  4 40  1  0
  5 41  1  6
  8 42  1  0
  8 43  1  0
  8 44  1  0
  9 45  1  0
  9 46  1  0
  9 47  1  0
 10 48  1  1
 11 49  1  0
 11 50  1  0
 12 51  1  0
 12 52  1  0
 14 53  1  0
 14 54  1  0
 14 55  1  0
 15 56  1  6
 16 57  1  0
 16 58  1  0
 17 59  1  0
 19 60  1  1
 20 61  1  0
 20 62  1  0
 21 63  1  0
 21 64  1  0
 22 65  1  1
 23 66  1  0
 25 67  1  0
 25 68  1  0
 25 69  1  0
 26 70  1  0
 26 71  1  0
 26 72  1  0
 28 73  1  0
 28 74  1  0
 28 75  1  0
 29 76  1  0
 29 77  1  0
 30 78  1  0
 30 79  1  0
 32 80  1  0
 32 81  1  0
 32 82  1  0
M  END
>  <meeko>  (7) 
{"is_sidechain": [false], "intermolecular_energy": 2.731, "internal_energy": -0.839}

$$$$
EPH_relaxed_0001_pdb2pqr_Repair_128_r2_0001_out
     RDKit          3D

 82 86  0  0  0  0  0  0  0  0999 V2000
    2.1720   16.9270   -0.2910 C   0  0  0  0  0  0  0  0  0  0  0  0
    1.6830   17.0620   -1.7360 C   0  0  2  0  0  0  0  0  0  0  0  0
    0.7780   18.2950   -1.9300 C   0  0  0  0  0  0  0  0  0  0  0  0
    0.8670   19.3100   -0.7870 C   0  0  0  0  0  0  0  0  0  0  0  0
   -0.4630   19.9380   -0.4980 C   0  0  2  0  0  0  0  0  0  0  0  0
   -0.7730   20.0690    0.8950 O   0  0  0  0  0  0  0  0  0  0  0  0
   -1.6210   19.1910    0.1370 C   0  0  0  0  0  0  0  0  0  0  0  0
   -1.5030   17.7500    0.5220 C   0  0  0  0  0  0  0  0  0  0  0  0
   -3.0080   19.7170   -0.0640 C   0  0  0  0  0  0  0  0  0  0  0  0
    0.9400   15.7990   -2.1540 C   0  0  1  0  0  0  0  0  0  0  0  0
    0.4740   15.8420   -3.6340 C   0  0  0  0  0  0  0  0  0  0  0  0
    0.5800   14.3940   -4.1780 C   0  0  0  0  0  0  0  0  0  0  0  0
    0.7800   13.5180   -2.9190 C   0  0  1  0  0  0  0  0  0  0  0  0
   -0.6530   13.3260   -2.3310 C   0  0  0  0  0  0  0  0  0  0  0  0
    1.5020   12.1480   -3.1380 C   0  0  2  0  0  0  0  0  0  0  0  0
    0.7640   11.1620   -4.0610 C   0  0  0  0  0  0  0  0  0  0  0  0
   -0.1830   10.2340   -3.3750 C   0  0  0  0  0  0  0  0  0  0  0  0
   -0.2240    9.9970   -2.0510 C   0  0  0  0  0  0  0  0  0  0  0  0
    0.8110   10.6210   -1.1060 C   0  0  1  0  0  0  0  0  0  0  0  0
    1.3450    9.5370   -0.1340 C   0  0  0  0  0  0  0  0  0  0  0  0
    0.2260    8.8210    0.6170 C   0  0  0  0  0  0  0  0  0  0  0  0
   -0.7500    8.1640   -0.3560 C   0  0  2  0  0  0  0  0  0  0  0  0
   -0.0750    7.1040   -1.0410 O   0  0  0  0  0  0  0  0  0  0  0  0
   -1.3470    9.1590   -1.3900 C   0  0  0  0  0  0  0  0  0  0  0  0
   -2.3220   10.1280   -0.6780 C   0  0  0  0  0  0  0  0  0  0  0  0
   -2.2030    8.3440   -2.3970 C   0  0  0  0  0  0  0  0  0  0  0  0
    1.9770   11.4450   -1.8030 C   0  0  1  0  0  0  0  0  0  0  0  0
    3.1440   10.4870   -2.1950 C   0  0  0  0  0  0  0  0  0  0  0  0
    2.5730   12.4700   -0.7660 C   0  0  0  0  0  0  0  0  0  0  0  0
    1.8910   13.8480   -0.6820 C   0  0  0  0  0  0  0  0  0  0  0  0
    1.7140   14.4590   -2.0750 C   0  0  2  0  0  0  0  0  0  0  0  0
    3.1410   14.6840   -2.6830 C   0  0  0  0  0  0  0  0  0  0  0  0
    1.3458   17.1551    0.3985 H   0  0  0  0  0  0  0  0  0  0  0  0
    2.5217   15.8987   -0.1168 H   0  0  0  0  0  0  0  0  0  0  0  0
    2.9997   17.6302   -0.1168 H   0  0  0  0  0  0  0  0  0  0  0  0
    2.5689   17.1995   -2.3734 H   0  0  0  0  0  0  0  0  0  0  0  0
    1.0708   18.7971   -2.8639 H   0  0  0  0  0  0  0  0  0  0  0  0
   -0.2597   17.9310   -1.9565 H   0  0  0  0  0  0  0  0  0  0  0  0
    1.2231   18.7968    0.1184 H   0  0  0  0  0  0  0  0  0  0  0  0
    1.5636   20.1060   -1.0889 H   0  0  0  0  0  0  0  0  0  0  0  0
   -0.3933   20.5581   -1.4039 H   0  0  0  0  0  0  0  0  0  0  0  0
   -1.4959   17.6628    1.6185 H   0  0  0  0  0  0  0  0  0  0  0  0
   -2.3583   17.1906    0.1153 H   0  0  0  0  0  0  0  0  0  0  0  0
   -0.5680   17.3372    0.1153 H   0  0  0  0  0  0  0  0  0  0  0  0
   -3.4779   19.8952    0.9145 H   0  0  0  0  0  0  0  0  0  0  0  0
   -2.9642   20.6609   -0.6271 H   0  0  0  0  0  0  0  0  0  0  0  0
   -3.6011   18.9814   -0.6271 H   0  0  0  0  0  0  0  0  0  0  0  0
    0.1283   15.8087   -1.4117 H   0  0  0  0  0  0  0  0  0  0  0  0
   -0.5665   16.1939   -3.6935 H   0  0  0  0  0  0  0  0  0  0  0  0
    1.0950   16.5322   -4.2239 H   0  0  0  0  0  0  0  0  0  0  0  0
   -0.3416   14.1094   -4.7068 H   0  0  0  0  0  0  0  0  0  0  0  0
    1.4010   14.2790   -4.9010 H   0  0  0  0  0  0  0  0  0  0  0  0
   -0.6024   13.3328   -1.2322 H   0  0  0  0  0  0  0  0  0  0  0  0
   -1.3025   14.1451   -2.6732 H   0  0  0  0  0  0  0  0  0  0  0  0
   -1.0640   12.3648   -2.6732 H   0  0  0  0  0  0  0  0  0  0  0  0
    2.4105   12.4445   -3.6828 H   0  0  0  0  0  0  0  0  0  0  0  0
    0.1932   11.7474   -4.7969 H   0  0  0  0  0  0  0  0  0  0  0  0
    1.5409   10.5264   -4.5110 H   0  0  0  0  0  0  0  0  0  0  0  0
   -0.9086    9.6987   -4.0051 H   0  0  0  0  0  0  0  0  0  0  0  0
    0.2768   11.3981   -0.5396 H   0  0  0  0  0  0  0  0  0  0  0  0
    1.9130    8.7937   -0.7127 H   0  0  0  0  0  0  0  0  0  0  0  0
    1.9783   10.0402    0.6115 H   0  0  0  0  0  0  0  0  0  0  0  0
    0.6645    8.0474    1.2645 H   0  0  0  0  0  0  0  0  0  0  0  0
   -0.3224    9.5606    1.2189 H   0  0  0  0  0  0  0  0  0  0  0  0
   -1.5957    7.7801    0.2335 H   0  0  0  0  0  0  0  0  0  0  0  0
    0.5060    6.6620   -0.3990 H   0  0  0  0  0  0  0  0  0  0  0  0
   -2.2146   10.0213    0.4115 H   0  0  0  0  0  0  0  0  0  0  0  0
   -2.0890   11.1627   -0.9698 H   0  0  0  0  0  0  0  0  0  0  0  0
   -3.3552    9.8886   -0.9698 H   0  0  0  0  0  0  0  0  0  0  0  0
   -2.8922    7.6878   -1.8454 H   0  0  0  0  0  0  0  0  0  0  0  0
   -2.7809    9.0339   -3.0295 H   0  0  0  0  0  0  0  0  0  0  0  0
   -1.5423    7.7330   -3.0295 H   0  0  0  0  0  0  0  0  0  0  0  0
    3.6197   10.0965   -1.2833 H   0  0  0  0  0  0  0  0  0  0  0  0
    2.7477    9.6503   -2.7890 H   0  0  0  0  0  0  0  0  0  0  0  0
    3.8875   11.0387   -2.7890 H   0  0  0  0  0  0  0  0  0  0  0  0
    2.5136   12.0079    0.2305 H   0  0  0  0  0  0  0  0  0  0  0  0
    3.5945   12.6753   -1.1186 H   0  0  0  0  0  0  0  0  0  0  0  0
    0.9033   13.7324   -0.2118 H   0  0  0  0  0  0  0  0  0  0  0  0
    2.5267   14.5176   -0.0840 H   0  0  0  0  0  0  0  0  0  0  0  0
    3.8722   14.7993   -1.8694 H   0  0  0  0  0  0  0  0  0  0  0  0
    3.4160   13.8181   -3.3032 H   0  0  0  0  0  0  0  0  0  0  0  0
    3.1363   15.5925   -3.3032 H   0  0  0  0  0  0  0  0  0  0  0  0
  1  2  1  0
  2  3  1  0
  3  4  1  0
  4  5  1  0
  5  6  1  0
  6  7  1  0
  7  8  1  0
  7  9  1  0
  2 10  1  0
 10 11  1  0
 11 12  1  0
 12 13  1  0
 13 14  1  1
 13 15  1  0
 15 16  1  0
 16 17  1  0
 17 18  2  0
 18 19  1  0
 19 20  1  0
 20 21  1  0
 21 22  1  0
 22 23  1  0
 22 24  1  0
 24 25  1  0
 24 26  1  0
 19 27  1  0
 27 28  1  6
 27 29  1  0
 29 30  1  0
 30 31  1  0
 31 32  1  6
  7  5  1  0
 31 10  1  0
 31 13  1  0
 27 15  1  0
 24 18  1  0
  1 33  1  0
  1 34  1  0
  1 35  1  0
  2 36  1  6
  3 37  1  0
  3 38  1  0
  4 39  1  0
  4 40  1  0
  5 41  1  6
  8 42  1  0
  8 43  1  0
  8 44  1  0
  9 45  1  0
  9 46  1  0
  9 47  1  0
 10 48  1  1
 11 49  1  0
 11 50  1  0
 12 51  1  0
 12 52  1  0
 14 53  1  0
 14 54  1  0
 14 55  1  0
 15 56  1  6
 16 57  1  0
 16 58  1  0
 17 59  1  0
 19 60  1  1
 20 61  1  0
 20 62  1  0
 21 63  1  0
 21 64  1  0
 22 65  1  1
 23 66  1  0
 25 67  1  0
 25 68  1  0
 25 69  1  0
 26 70  1  0
 26 71  1  0
 26 72  1  0
 28 73  1  0
 28 74  1  0
 28 75  1  0
 29 76  1  0
 29 77  1  0
 30 78  1  0
 30 79  1  0
 32 80  1  0
 32 81  1  0
 32 82  1  0
M  END
>  <meeko>  (8) 
{"is_sidechain": [false], "intermolecular_energy": 2.731, "internal_energy": -0.839}

$$$$
EPH_relaxed_0001_pdb2pqr_Repair_128_r2_0001_out
     RDKit          3D

 82 86  0  0  0  0  0  0  0  0999 V2000
   -5.1550    5.8410   -1.7650 C   0  0  0  0  0  0  0  0  0  0  0  0
   -5.4580    7.3420   -1.7950 C   0  0  2  0  0  0  0  0  0  0  0  0
   -5.2390    8.0060   -0.4210 C   0  0  0  0  0  0  0  0  0  0  0  0
   -4.1610    9.0940   -0.4280 C   0  0  0  0  0  0  0  0  0  0  0  0
   -2.8480    8.5700   -0.9240 C   0  0  2  0  0  0  0  0  0  0  0  0
   -1.7480    8.7620   -0.0250 O   0  0  0  0  0  0  0  0  0  0  0  0
   -1.6710    9.4600   -1.2780 C   0  0  0  0  0  0  0  0  0  0  0  0
   -1.7540   10.9490   -1.1520 C   0  0  0  0  0  0  0  0  0  0  0  0
   -0.6220    8.9260   -2.2030 C   0  0  0  0  0  0  0  0  0  0  0  0
   -6.8900    7.5730   -2.2620 C   0  0  1  0  0  0  0  0  0  0  0  0
   -7.1960    6.8790   -3.6160 C   0  0  0  0  0  0  0  0  0  0  0  0
   -8.6730    6.4100   -3.5550 C   0  0  0  0  0  0  0  0  0  0  0  0
   -9.2610    7.1340   -2.3210 C   0  0  1  0  0  0  0  0  0  0  0  0
   -9.6050    8.5700   -2.8240 C   0  0  0  0  0  0  0  0  0  0  0  0
  -10.4910    6.4500   -1.6400 C   0  0  2  0  0  0  0  0  0  0  0  0
  -11.7430    6.3290   -2.5260 C   0  0  0  0  0  0  0  0  0  0  0  0
  -12.6930    7.4770   -2.4470 C   0  0  0  0  0  0  0  0  0  0  0  0
  -12.6960    8.4260   -1.4930 C   0  0  0  0  0  0  0  0  0  0  0  0
  -11.7350    8.3460   -0.2990 C   0  0  1  0  0  0  0  0  0  0  0  0
  -12.5140    8.6270    1.0120 C   0  0  0  0  0  0  0  0  0  0  0  0
  -13.2790    9.9470    0.9670 C   0  0  0  0  0  0  0  0  0  0  0  0
  -14.2660    9.9650   -0.1980 C   0  0  2  0  0  0  0  0  0  0  0  0
  -15.2870    8.9940    0.0480 O   0  0  0  0  0  0  0  0  0  0  0  0
  -13.5970    9.6840   -1.5720 C   0  0  0  0  0  0  0  0  0  0  0  0
  -12.7130   10.8890   -1.9770 C   0  0  0  0  0  0  0  0  0  0  0  0
  -14.7200    9.5900   -2.6400 C   0  0  0  0  0  0  0  0  0  0  0  0
  -10.8470    7.0310   -0.2120 C   0  0  1  0  0  0  0  0  0  0  0  0
  -11.6280    5.9110    0.5420 C   0  0  0  0  0  0  0  0  0  0  0  0
   -9.5640    7.3340    0.6480 C   0  0  0  0  0  0  0  0  0  0  0  0
   -8.3410    7.8960   -0.1020 C   0  0  0  0  0  0  0  0  0  0  0  0
   -8.0290    7.0590   -1.3460 C   0  0  2  0  0  0  0  0  0  0  0  0
   -7.6570    5.6140   -0.8700 C   0  0  0  0  0  0  0  0  0  0  0  0
   -5.0865    5.5016   -0.7209 H   0  0  0  0  0  0  0  0  0  0  0  0
   -5.9608    5.2940   -2.2763 H   0  0  0  0  0  0  0  0  0  0  0  0
   -4.2001    5.6494   -2.2763 H   0  0  0  0  0  0  0  0  0  0  0  0
   -4.7559    7.8075   -2.5024 H   0  0  0  0  0  0  0  0  0  0  0  0
   -6.1881    8.4595   -0.0992 H   0  0  0  0  0  0  0  0  0  0  0  0
   -4.8962    7.2182    0.2659 H   0  0  0  0  0  0  0  0  0  0  0  0
   -4.4875    9.9151   -1.0831 H   0  0  0  0  0  0  0  0  0  0  0  0
   -4.0218    9.4454    0.6050 H   0  0  0  0  0  0  0  0  0  0  0  0
   -3.3522    7.7606   -1.4723 H   0  0  0  0  0  0  0  0  0  0  0  0
   -1.7695   11.2266   -0.0877 H   0  0  0  0  0  0  0  0  0  0  0  0
   -0.8800   11.4074   -1.6378 H   0  0  0  0  0  0  0  0  0  0  0  0
   -2.6735   11.3074   -1.6378 H   0  0  0  0  0  0  0  0  0  0  0  0
    0.2060    8.5045   -1.6141 H   0  0  0  0  0  0  0  0  0  0  0  0
   -1.0581    8.1402   -2.8373 H   0  0  0  0  0  0  0  0  0  0  0  0
   -0.2432    9.7410   -2.8373 H   0  0  0  0  0  0  0  0  0  0  0  0
   -6.8988    8.6726   -2.2918 H   0  0  0  0  0  0  0  0  0  0  0  0
   -7.0579    7.5886   -4.4451 H   0  0  0  0  0  0  0  0  0  0  0  0
   -6.5186    6.0292   -3.7861 H   0  0  0  0  0  0  0  0  0  0  0  0
   -9.2111    6.7012   -4.4691 H   0  0  0  0  0  0  0  0  0  0  0  0
   -8.7608    5.3162   -3.4783 H   0  0  0  0  0  0  0  0  0  0  0  0
   -9.7638    9.2327   -1.9605 H   0  0  0  0  0  0  0  0  0  0  0  0
   -8.7735    8.9542   -3.4331 H   0  0  0  0  0  0  0  0  0  0  0  0
  -10.5203    8.5357   -3.4331 H   0  0  0  0  0  0  0  0  0  0  0  0
  -10.1338    5.4211   -1.4857 H   0  0  0  0  0  0  0  0  0  0  0  0
  -11.4122    6.2329   -3.5707 H   0  0  0  0  0  0  0  0  0  0  0  0
  -12.2941    5.4519   -2.1560 H   0  0  0  0  0  0  0  0  0  0  0  0
  -13.4558    7.5541   -3.2358 H   0  0  0  0  0  0  0  0  0  0  0  0
  -10.9819    9.1314   -0.4606 H   0  0  0  0  0  0  0  0  0  0  0  0
  -13.2309    7.8095    1.1782 H   0  0  0  0  0  0  0  0  0  0  0  0
  -11.7800    8.6942    1.8286 H   0  0  0  0  0  0  0  0  0  0  0  0
  -13.8317   10.0753    1.9094 H   0  0  0  0  0  0  0  0  0  0  0  0
  -12.5582   10.7666    0.8298 H   0  0  0  0  0  0  0  0  0  0  0  0
  -14.6884   10.9789   -0.2569 H   0  0  0  0  0  0  0  0  0  0  0  0
  -15.3140    8.8310    1.0060 H   0  0  0  0  0  0  0  0  0  0  0  0
  -12.3432   11.3931   -1.0719 H   0  0  0  0  0  0  0  0  0  0  0  0
  -11.8597   10.5337   -2.5734 H   0  0  0  0  0  0  0  0  0  0  0  0
  -13.3081   11.5963   -2.5734 H   0  0  0  0  0  0  0  0  0  0  0  0
  -15.6961    9.5083   -2.1395 H   0  0  0  0  0  0  0  0  0  0  0  0
  -14.7047   10.4926   -3.2686 H   0  0  0  0  0  0  0  0  0  0  0  0
  -14.5548    8.7025   -3.2686 H   0  0  0  0  0  0  0  0  0  0  0  0
  -11.5248    6.0589    1.6271 H   0  0  0  0  0  0  0  0  0  0  0  0
  -12.6917    5.9558    0.2653 H   0  0  0  0  0  0  0  0  0  0  0  0
  -11.2183    4.9284    0.2653 H   0  0  0  0  0  0  0  0  0  0  0  0
   -9.8459    8.0654    1.4198 H   0  0  0  0  0  0  0  0  0  0  0  0
   -9.2398    6.3567    1.0351 H   0  0  0  0  0  0  0  0  0  0  0  0
   -8.5512    8.9314   -0.4083 H   0  0  0  0  0  0  0  0  0  0  0  0
   -7.4712    7.8626    0.5705 H   0  0  0  0  0  0  0  0  0  0  0  0
   -7.6485    5.5810    0.2295 H   0  0  0  0  0  0  0  0  0  0  0  0
   -8.4004    4.8992   -1.2526 H   0  0  0  0  0  0  0  0  0  0  0  0
   -6.6608    5.3470   -1.2526 H   0  0  0  0  0  0  0  0  0  0  0  0
  1  2  1  0
  2  3  1  0
  3  4  1  0
  4  5  1  0
  5  6  1  0
  6  7  1  0
  7  8  1  0
  7  9  1  0
  2 10  1  0
 10 11  1  0
 11 12  1  0
 12 13  1  0
 13 14  1  6
 13 15  1  0
 15 16  1  0
 16 17  1  0
 17 18  2  0
 18 19  1  0
 19 20  1  0
 20 21  1  0
 21 22  1  0
 22 23  1  0
 22 24  1  0
 24 25  1  0
 24 26  1  0
 19 27  1  0
 27 28  1  1
 27 29  1  0
 29 30  1  0
 30 31  1  0
 31 32  1  1
  7  5  1  0
 31 10  1  0
 31 13  1  0
 27 15  1  0
 24 18  1  0
  1 33  1  0
  1 34  1  0
  1 35  1  0
  2 36  1  6
  3 37  1  0
  3 38  1  0
  4 39  1  0
  4 40  1  0
  5 41  1  6
  8 42  1  0
  8 43  1  0
  8 44  1  0
  9 45  1  0
  9 46  1  0
  9 47  1  0
 10 48  1  6
 11 49  1  0
 11 50  1  0
 12 51  1  0
 12 52  1  0
 14 53  1  0
 14 54  1  0
 14 55  1  0
 15 56  1  1
 16 57  1  0
 16 58  1  0
 17 59  1  0
 19 60  1  6
 20 61  1  0
 20 62  1  0
 21 63  1  0
 21 64  1  0
 22 65  1  6
 23 66  1  0
 25 67  1  0
 25 68  1  0
 25 69  1  0
 26 70  1  0
 26 71  1  0
 26 72  1  0
 28 73  1  0
 28 74  1  0
 28 75  1  0
 29 76  1  0
 29 77  1  0
 30 78  1  0
 30 79  1  0
 32 80  1  0
 32 81  1  0
 32 82  1  0
M  END
>  <meeko>  (9) 
{"is_sidechain": [false], "intermolecular_energy": 2.731, "internal_energy": -0.839}

$$$$
EPH_relaxed_0001_pdb2pqr_Repair_128_r2_0001_out
     RDKit          3D

 82 86  0  0  0  0  0  0  0  0999 V2000
    0.4580    8.7780   -2.6770 C   0  0  0  0  0  0  0  0  0  0  0  0
    1.2320    9.9310   -3.3220 C   0  0  2  0  0  0  0  0  0  0  0  0
    2.7250    9.9160   -2.9360 C   0  0  0  0  0  0  0  0  0  0  0  0
    3.6260   10.6490   -3.9340 C   0  0  0  0  0  0  0  0  0  0  0  0
    5.0070   10.8500   -3.3890 C   0  0  2  0  0  0  0  0  0  0  0  0
    5.6420   12.0680   -3.8010 O   0  0  0  0  0  0  0  0  0  0  0  0
    6.2550   10.8490   -4.2520 C   0  0  0  0  0  0  0  0  0  0  0  0
    6.1800   10.6410   -5.7320 C   0  0  0  0  0  0  0  0  0  0  0  0
    7.5740   10.5620   -3.6030 C   0  0  0  0  0  0  0  0  0  0  0  0
    0.6050   11.2620   -2.9280 C   0  0  1  0  0  0  0  0  0  0  0  0
   -0.8600   11.1110   -2.4380 C   0  0  0  0  0  0  0  0  0  0  0  0
   -1.0700   12.1670   -1.3220 C   0  0  0  0  0  0  0  0  0  0  0  0
    0.1570   13.1030   -1.4350 C   0  0  1  0  0  0  0  0  0  0  0  0
   -0.1910   14.0810   -2.6010 C   0  0  0  0  0  0  0  0  0  0  0  0
    0.5600   13.8730   -0.1360 C   0  0  2  0  0  0  0  0  0  0  0  0
   -0.5010   14.8520    0.3980 C   0  0  0  0  0  0  0  0  0  0  0  0
   -0.4010   16.2470   -0.1240 C   0  0  0  0  0  0  0  0  0  0  0  0
    0.6630   16.7700   -0.7610 C   0  0  0  0  0  0  0  0  0  0  0  0
    1.9570   15.9620   -0.9260 C   0  0  1  0  0  0  0  0  0  0  0  0
    3.1730   16.8510   -0.5540 C   0  0  0  0  0  0  0  0  0  0  0  0
    3.2000   18.1620   -1.3340 C   0  0  0  0  0  0  0  0  0  0  0  0
    1.9220   18.9630   -1.0980 C   0  0  2  0  0  0  0  0  0  0  0  0
    1.8890   19.3870    0.2680 O   0  0  0  0  0  0  0  0  0  0  0  0
    0.6300   18.1660   -1.4300 C   0  0  0  0  0  0  0  0  0  0  0  0
    0.5190   17.9690   -2.9620 C   0  0  0  0  0  0  0  0  0  0  0  0
   -0.5870   19.0370   -1.0150 C   0  0  0  0  0  0  0  0  0  0  0  0
    1.9900   14.5490   -0.2000 C   0  0  1  0  0  0  0  0  0  0  0  0
    2.4690   14.7180    1.2740 C   0  0  0  0  0  0  0  0  0  0  0  0
    3.0540   13.6310   -0.9100 C   0  0  0  0  0  0  0  0  0  0  0  0
    2.5650   12.8030   -2.1140 C   0  0  0  0  0  0  0  0  0  0  0  0
    1.2740   12.0510   -1.7740 C   0  0  2  0  0  0  0  0  0  0  0  0
    1.5990   11.0430   -0.6190 C   0  0  0  0  0  0  0  0  0  0  0  0
    0.5161    8.8646   -1.5820 H   0  0  0  0  0  0  0  0  0  0  0  0
   -0.5948    8.8211   -2.9928 H   0  0  0  0  0  0  0  0  0  0  0  0
    0.8966    7.8199   -2.9928 H   0  0  0  0  0  0  0  0  0  0  0  0
    1.1722    9.8007   -4.4126 H   0  0  0  0  0  0  0  0  0  0  0  0
    2.8342   10.3957   -1.9521 H   0  0  0  0  0  0  0  0  0  0  0  0
    3.0443    8.8634   -2.9274 H   0  0  0  0  0  0  0  0  0  0  0  0
    3.6902   10.0563   -4.8585 H   0  0  0  0  0  0  0  0  0  0  0  0
    3.1871   11.6384   -4.1301 H   0  0  0  0  0  0  0  0  0  0  0  0
    4.7473   10.3098   -2.4667 H   0  0  0  0  0  0  0  0  0  0  0  0
    5.8137    9.6251   -5.9414 H   0  0  0  0  0  0  0  0  0  0  0  0
    5.4907   11.3771   -6.1713 H   0  0  0  0  0  0  0  0  0  0  0  0
    7.1805   10.7678   -6.1713 H   0  0  0  0  0  0  0  0  0  0  0  0
    7.4578   10.5873   -2.5094 H   0  0  0  0  0  0  0  0  0  0  0  0
    7.9255    9.5664   -3.9115 H   0  0  0  0  0  0  0  0  0  0  0  0
    8.3074   11.3216   -3.9115 H   0  0  0  0  0  0  0  0  0  0  0  0
    0.7238   11.8081   -3.8755 H   0  0  0  0  0  0  0  0  0  0  0  0
   -1.5578   11.2937   -3.2684 H   0  0  0  0  0  0  0  0  0  0  0  0
   -1.0472   10.0950   -2.0604 H   0  0  0  0  0  0  0  0  0  0  0  0
   -2.0022   12.7270   -1.4876 H   0  0  0  0  0  0  0  0  0  0  0  0
   -1.1555   11.7095   -0.3253 H   0  0  0  0  0  0  0  0  0  0  0  0
   -0.5324   15.0405   -2.1852 H   0  0  0  0  0  0  0  0  0  0  0  0
    0.7033   14.2469   -3.2197 H   0  0  0  0  0  0  0  0  0  0  0  0
   -0.9891   13.6447   -3.2197 H   0  0  0  0  0  0  0  0  0  0  0  0
    0.6221   13.0647    0.6075 H   0  0  0  0  0  0  0  0  0  0  0  0
   -1.4925   14.4587    0.1292 H   0  0  0  0  0  0  0  0  0  0  0  0
   -0.3337   14.9202    1.4831 H   0  0  0  0  0  0  0  0  0  0  0  0
   -1.2711   16.9034    0.0247 H   0  0  0  0  0  0  0  0  0  0  0  0
    2.0083   15.6840   -1.9891 H   0  0  0  0  0  0  0  0  0  0  0  0
    3.1259   17.0810    0.5206 H   0  0  0  0  0  0  0  0  0  0  0  0
    4.0855   16.2921   -0.8089 H   0  0  0  0  0  0  0  0  0  0  0  0
    4.0644   18.7582   -1.0063 H   0  0  0  0  0  0  0  0  0  0  0  0
    3.2769   17.9311   -2.4067 H   0  0  0  0  0  0  0  0  0  0  0  0
    1.9422   19.8254   -1.7805 H   0  0  0  0  0  0  0  0  0  0  0  0
    1.5870   20.3100    0.2830 H   0  0  0  0  0  0  0  0  0  0  0  0
   -0.0109   17.0285   -3.1733 H   0  0  0  0  0  0  0  0  0  0  0  0
   -0.0379   18.8102   -3.4005 H   0  0  0  0  0  0  0  0  0  0  0  0
    1.5270   17.9284   -3.4005 H   0  0  0  0  0  0  0  0  0  0  0  0
   -0.6490   19.0813    0.0824 H   0  0  0  0  0  0  0  0  0  0  0  0
   -0.4643   20.0536   -1.4167 H   0  0  0  0  0  0  0  0  0  0  0  0
   -1.5097   18.5929   -1.4167 H   0  0  0  0  0  0  0  0  0  0  0  0
    1.6570   14.4315    1.9585 H   0  0  0  0  0  0  0  0  0  0  0  0
    3.3428   14.0739    1.4517 H   0  0  0  0  0  0  0  0  0  0  0  0
    2.7451   15.7678    1.4517 H   0  0  0  0  0  0  0  0  0  0  0  0
    3.8707   14.2787   -1.2614 H   0  0  0  0  0  0  0  0  0  0  0  0
    3.3467   12.8902   -0.1513 H   0  0  0  0  0  0  0  0  0  0  0  0
    2.3758   13.4778   -2.9618 H   0  0  0  0  0  0  0  0  0  0  0  0
    3.3414   12.0680   -2.3729 H   0  0  0  0  0  0  0  0  0  0  0  0
    1.4405   11.5347    0.3522 H   0  0  0  0  0  0  0  0  0  0  0  0
    0.9375   10.1678   -0.6992 H   0  0  0  0  0  0  0  0  0  0  0  0
    2.6471   10.7190   -0.6992 H   0  0  0  0  0  0  0  0  0  0  0  0
  1  2  1  0
  2  3  1  0
  3  4  1  0
  4  5  1  0
  5  6  1  0
  6  7  1  0
  7  8  1  0
  7  9  1  0
  2 10  1  0
 10 11  1  0
 11 12  1  0
 12 13  1  0
 13 14  1  6
 13 15  1  0
 15 16  1  0
 16 17  1  0
 17 18  2  0
 18 19  1  0
 19 20  1  0
 20 21  1  0
 21 22  1  0
 22 23  1  0
 22 24  1  0
 24 25  1  0
 24 26  1  0
 19 27  1  0
 27 28  1  1
 27 29  1  0
 29 30  1  0
 30 31  1  0
 31 32  1  1
  7  5  1  0
 31 10  1  0
 31 13  1  0
 27 15  1  0
 24 18  1  0
  1 33  1  0
  1 34  1  0
  1 35  1  0
  2 36  1  6
  3 37  1  0
  3 38  1  0
  4 39  1  0
  4 40  1  0
  5 41  1  1
  8 42  1  0
  8 43  1  0
  8 44  1  0
  9 45  1  0
  9 46  1  0
  9 47  1  0
 10 48  1  6
 11 49  1  0
 11 50  1  0
 12 51  1  0
 12 52  1  0
 14 53  1  0
 14 54  1  0
 14 55  1  0
 15 56  1  1
 16 57  1  0
 16 58  1  0
 17 59  1  0
 19 60  1  6
 20 61  1  0
 20 62  1  0
 21 63  1  0
 21 64  1  0
 22 65  1  6
 23 66  1  0
 25 67  1  0
 25 68  1  0
 25 69  1  0
 26 70  1  0
 26 71  1  0
 26 72  1  0
 28 73  1  0
 28 74  1  0
 28 75  1  0
 29 76  1  0
 29 77  1  0
 30 78  1  0
 30 79  1  0
 32 80  1  0
 32 81  1  0
 32 82  1  0
M  END
>  <meeko>  (10) 
{"is_sidechain": [false], "intermolecular_energy": 2.731, "internal_energy": -0.839}

$$$$
EPH_relaxed_0001_pdb2pqr_Repair_128_r2_0001_out
     RDKit          3D

 82 86  0  0  0  0  0  0  0  0999 V2000
    0.1110    9.2290   -2.0020 C   0  0  0  0  0  0  0  0  0  0  0  0
    1.0830   10.2610   -2.5820 C   0  0  2  0  0  0  0  0  0  0  0  0
    2.5010    9.6850   -2.7640 C   0  0  0  0  0  0  0  0  0  0  0  0
    3.3480   10.4460   -3.7880 C   0  0  0  0  0  0  0  0  0  0  0  0
    4.7440   10.6740   -3.2930 C   0  0  2  0  0  0  0  0  0  0  0  0
    5.3520   11.8870   -3.7540 O   0  0  0  0  0  0  0  0  0  0  0  0
    5.9640   10.6650   -4.1960 C   0  0  0  0  0  0  0  0  0  0  0  0
    5.8430   10.4210   -5.6680 C   0  0  0  0  0  0  0  0  0  0  0  0
    7.3050   10.4060   -3.5840 C   0  0  0  0  0  0  0  0  0  0  0  0
    1.1320   11.4910   -1.6830 C   0  0  1  0  0  0  0  0  0  0  0  0
    2.2230   11.3860   -0.5850 C   0  0  0  0  0  0  0  0  0  0  0  0
    2.7830   12.8160   -0.3720 C   0  0  0  0  0  0  0  0  0  0  0  0
    1.7790   13.7400   -1.1010 C   0  0  1  0  0  0  0  0  0  0  0  0
    0.5960   13.9170   -0.0990 C   0  0  0  0  0  0  0  0  0  0  0  0
    2.3360   15.1180   -1.5870 C   0  0  2  0  0  0  0  0  0  0  0  0
    2.8280   16.0530   -0.4690 C   0  0  0  0  0  0  0  0  0  0  0  0
    1.7990   16.9810    0.0850 C   0  0  0  0  0  0  0  0  0  0  0  0
    0.6120   17.2640   -0.4840 C   0  0  0  0  0  0  0  0  0  0  0  0
    0.2460   16.6970   -1.8620 C   0  0  1  0  0  0  0  0  0  0  0  0
   -0.3440   17.8280   -2.7460 C   0  0  0  0  0  0  0  0  0  0  0  0
   -1.5150   18.5420   -2.0780 C   0  0  0  0  0  0  0  0  0  0  0  0
   -1.0960   19.1410   -0.7380 C   0  0  2  0  0  0  0  0  0  0  0  0
   -0.1550   20.1920   -0.9770 O   0  0  0  0  0  0  0  0  0  0  0  0
   -0.4780   18.0970    0.2340 C   0  0  0  0  0  0  0  0  0  0  0  0
   -1.5810   17.1300    0.7300 C   0  0  0  0  0  0  0  0  0  0  0  0
    0.0310   18.8560    1.4890 C   0  0  0  0  0  0  0  0  0  0  0  0
    1.3890   15.8780   -2.6010 C   0  0  1  0  0  0  0  0  0  0  0  0
    2.2970   16.8490   -3.4160 C   0  0  0  0  0  0  0  0  0  0  0  0
    0.7290   14.9040   -3.6480 C   0  0  0  0  0  0  0  0  0  0  0  0
    0.3090   13.5140   -3.1350 C   0  0  0  0  0  0  0  0  0  0  0  0
    1.4480   12.8510   -2.3550 C   0  0  2  0  0  0  0  0  0  0  0  0
    2.6450   12.6390   -3.3430 C   0  0  0  0  0  0  0  0  0  0  0  0
    0.1476    9.2678   -0.9033 H   0  0  0  0  0  0  0  0  0  0  0  0
   -0.9101    9.4548   -2.3431 H   0  0  0  0  0  0  0  0  0  0  0  0
    0.3975    8.2232   -2.3431 H   0  0  0  0  0  0  0  0  0  0  0  0
    0.7110   10.5428   -3.5781 H   0  0  0  0  0  0  0  0  0  0  0  0
    3.0168    9.7187   -1.7930 H   0  0  0  0  0  0  0  0  0  0  0  0
    2.3849    8.6586   -3.1422 H   0  0  0  0  0  0  0  0  0  0  0  0
    3.3909    9.8623   -4.7194 H   0  0  0  0  0  0  0  0  0  0  0  0
    2.8803   11.4269   -3.9586 H   0  0  0  0  0  0  0  0  0  0  0  0
    4.5198   10.1535   -2.3502 H   0  0  0  0  0  0  0  0  0  0  0  0
    5.3603    9.4476   -5.8399 H   0  0  0  0  0  0  0  0  0  0  0  0
    5.2353   11.2171   -6.1229 H   0  0  0  0  0  0  0  0  0  0  0  0
    6.8445   10.4190   -6.1229 H   0  0  0  0  0  0  0  0  0  0  0  0
    7.2171   10.4230   -2.4876 H   0  0  0  0  0  0  0  0  0  0  0  0
    7.6714    9.4205   -3.9073 H   0  0  0  0  0  0  0  0  0  0  0  0
    8.0121   11.1842   -3.9073 H   0  0  0  0  0  0  0  0  0  0  0  0
    0.0973   11.4874   -1.3097 H   0  0  0  0  0  0  0  0  0  0  0  0
    1.7840   11.0080    0.3501 H   0  0  0  0  0  0  0  0  0  0  0  0
    3.0204   10.6906   -0.8860 H   0  0  0  0  0  0  0  0  0  0  0  0
    2.8279   13.0600    0.6997 H   0  0  0  0  0  0  0  0  0  0  0  0
    3.8071   12.9251   -0.7583 H   0  0  0  0  0  0  0  0  0  0  0  0
    0.9767   13.8600    0.9315 H   0  0  0  0  0  0  0  0  0  0  0  0
    0.1216   14.8961   -0.2611 H   0  0  0  0  0  0  0  0  0  0  0  0
   -0.1442   13.1196   -0.2611 H   0  0  0  0  0  0  0  0  0  0  0  0
    3.2352   14.8248   -2.1487 H   0  0  0  0  0  0  0  0  0  0  0  0
    3.2021   15.4289    0.3559 H   0  0  0  0  0  0  0  0  0  0  0  0
    3.5999   16.6912   -0.9238 H   0  0  0  0  0  0  0  0  0  0  0  0
    2.0300   17.4761    1.0397 H   0  0  0  0  0  0  0  0  0  0  0  0
   -0.5181   15.9266   -1.6812 H   0  0  0  0  0  0  0  0  0  0  0  0
    0.4472   18.5642   -2.9512 H   0  0  0  0  0  0  0  0  0  0  0  0
   -0.7183   17.3671   -3.6720 H   0  0  0  0  0  0  0  0  0  0  0  0
   -1.8689   19.3480   -2.7377 H   0  0  0  0  0  0  0  0  0  0  0  0
   -2.3170   17.8105   -1.9002 H   0  0  0  0  0  0  0  0  0  0  0  0
   -2.0042   19.5242   -0.2498 H   0  0  0  0  0  0  0  0  0  0  0  0
    0.3800   19.9380   -1.7480 H   0  0  0  0  0  0  0  0  0  0  0  0
   -1.5924   17.1200    1.8299 H   0  0  0  0  0  0  0  0  0  0  0  0
   -2.5592   17.4669    0.3562 H   0  0  0  0  0  0  0  0  0  0  0  0
   -1.3750   16.1162    0.3562 H   0  0  0  0  0  0  0  0  0  0  0  0
   -0.3157   18.3390    2.3959 H   0  0  0  0  0  0  0  0  0  0  0  0
    1.1306   18.8832    1.4802 H   0  0  0  0  0  0  0  0  0  0  0  0
   -0.3612   19.8837    1.4802 H   0  0  0  0  0  0  0  0  0  0  0  0
    2.8807   17.4732   -2.7235 H   0  0  0  0  0  0  0  0  0  0  0  0
    2.9814   16.2659   -4.0497 H   0  0  0  0  0  0  0  0  0  0  0  0
    1.6694   17.4928   -4.0497 H   0  0  0  0  0  0  0  0  0  0  0  0
   -0.1708   15.3991   -4.0419 H   0  0  0  0  0  0  0  0  0  0  0  0
    1.5130   14.7103   -4.3948 H   0  0  0  0  0  0  0  0  0  0  0  0
   -0.5639   13.6227   -2.4746 H   0  0  0  0  0  0  0  0  0  0  0  0
    0.0608   12.8810   -3.9997 H   0  0  0  0  0  0  0  0  0  0  0  0
    3.5693   12.4753   -2.7695 H   0  0  0  0  0  0  0  0  0  0  0  0
    2.4465   11.7620   -3.9767 H   0  0  0  0  0  0  0  0  0  0  0  0
    2.7598   13.5308   -3.9767 H   0  0  0  0  0  0  0  0  0  0  0  0
  1  2  1  0
  2  3  1  0
  3  4  1  0
  4  5  1  0
  5  6  1  0
  6  7  1  0
  7  8  1  0
  7  9  1  0
  2 10  1  0
 10 11  1  0
 11 12  1  0
 12 13  1  0
 13 14  1  1
 13 15  1  0
 15 16  1  0
 16 17  1  0
 17 18  2  0
 18 19  1  0
 19 20  1  0
 20 21  1  0
 21 22  1  0
 22 23  1  0
 22 24  1  0
 24 25  1  0
 24 26  1  0
 19 27  1  0
 27 28  1  6
 27 29  1  0
 29 30  1  0
 30 31  1  0
 31 32  1  6
  7  5  1  0
 31 10  1  0
 31 13  1  0
 27 15  1  0
 24 18  1  0
  1 33  1  0
  1 34  1  0
  1 35  1  0
  2 36  1  6
  3 37  1  0
  3 38  1  0
  4 39  1  0
  4 40  1  0
  5 41  1  1
  8 42  1  0
  8 43  1  0
  8 44  1  0
  9 45  1  0
  9 46  1  0
  9 47  1  0
 10 48  1  1
 11 49  1  0
 11 50  1  0
 12 51  1  0
 12 52  1  0
 14 53  1  0
 14 54  1  0
 14 55  1  0
 15 56  1  6
 16 57  1  0
 16 58  1  0
 17 59  1  0
 19 60  1  1
 20 61  1  0
 20 62  1  0
 21 63  1  0
 21 64  1  0
 22 65  1  1
 23 66  1  0
 25 67  1  0
 25 68  1  0
 25 69  1  0
 26 70  1  0
 26 71  1  0
 26 72  1  0
 28 73  1  0
 28 74  1  0
 28 75  1  0
 29 76  1  0
 29 77  1  0
 30 78  1  0
 30 79  1  0
 32 80  1  0
 32 81  1  0
 32 82  1  0
M  END
>  <meeko>  (11) 
{"is_sidechain": [false], "intermolecular_energy": 2.731, "internal_energy": -0.839}

$$$$
EPH_relaxed_0001_pdb2pqr_Repair_128_r2_0001_out
     RDKit          3D

 82 86  0  0  0  0  0  0  0  0999 V2000
   -3.7870    7.1750   -3.4530 C   0  0  0  0  0  0  0  0  0  0  0  0
   -3.8060    7.2590   -1.9240 C   0  0  2  0  0  0  0  0  0  0  0  0
   -5.2200    7.0450   -1.3480 C   0  0  0  0  0  0  0  0  0  0  0  0
   -6.3410    7.2800   -2.3640 C   0  0  0  0  0  0  0  0  0  0  0  0
   -7.6650    7.4800   -1.6920 C   0  0  2  0  0  0  0  0  0  0  0  0
   -8.2490    6.2880   -1.1500 O   0  0  0  0  0  0  0  0  0  0  0  0
   -8.9680    6.9140   -2.2250 C   0  0  0  0  0  0  0  0  0  0  0  0
   -9.0100    6.1030   -3.4820 C   0  0  0  0  0  0  0  0  0  0  0  0
  -10.2530    7.5520   -1.7980 C   0  0  0  0  0  0  0  0  0  0  0  0
   -3.2580    8.6080   -1.4720 C   0  0  1  0  0  0  0  0  0  0  0  0
   -3.8850    9.0900   -0.1360 C   0  0  0  0  0  0  0  0  0  0  0  0
   -2.7720    9.8460    0.6340 C   0  0  0  0  0  0  0  0  0  0  0  0
   -1.6530   10.0620   -0.4120 C   0  0  1  0  0  0  0  0  0  0  0  0
   -2.1060   11.3090   -1.2330 C   0  0  0  0  0  0  0  0  0  0  0  0
   -0.2050   10.2380    0.1520 C   0  0  2  0  0  0  0  0  0  0  0  0
   -0.0000   11.4690    1.0520 C   0  0  0  0  0  0  0  0  0  0  0  0
    0.4270   12.7120    0.3450 C   0  0  0  0  0  0  0  0  0  0  0  0
    0.9110   12.7710   -0.9100 C   0  0  0  0  0  0  0  0  0  0  0  0
    1.1640   11.4910   -1.7180 C   0  0  1  0  0  0  0  0  0  0  0  0
    2.5600   11.5690   -2.3880 C   0  0  0  0  0  0  0  0  0  0  0  0
    2.7390   12.8320   -3.2250 C   0  0  0  0  0  0  0  0  0  0  0  0
    2.5380   14.0830   -2.3730 C   0  0  2  0  0  0  0  0  0  0  0  0
    3.5970   14.1640   -1.4150 O   0  0  0  0  0  0  0  0  0  0  0  0
    1.1670   14.1120   -1.6410 C   0  0  0  0  0  0  0  0  0  0  0  0
    0.0310   14.3280   -2.6710 C   0  0  0  0  0  0  0  0  0  0  0  0
    1.1500   15.3530   -0.7090 C   0  0  0  0  0  0  0  0  0  0  0  0
    0.9340   10.1240   -0.9400 C   0  0  1  0  0  0  0  0  0  0  0  0
    2.2360    9.7170   -0.1850 C   0  0  0  0  0  0  0  0  0  0  0  0
    0.6500    8.9810   -1.9850 C   0  0  0  0  0  0  0  0  0  0  0  0
   -0.8160    8.7780   -2.4120 C   0  0  0  0  0  0  0  0  0  0  0  0
   -1.7370    8.6990   -1.1910 C   0  0  2  0  0  0  0  0  0  0  0  0
   -1.3180    7.4400   -0.3570 C   0  0  0  0  0  0  0  0  0  0  0  0
   -3.5540    6.1450   -3.7608 H   0  0  0  0  0  0  0  0  0  0  0  0
   -4.7727    7.4617   -3.8482 H   0  0  0  0  0  0  0  0  0  0  0  0
   -3.0207    7.8580   -3.8482 H   0  0  0  0  0  0  0  0  0  0  0  0
   -3.1676    6.4499   -1.5396 H   0  0  0  0  0  0  0  0  0  0  0  0
   -5.2933    6.0098   -0.9833 H   0  0  0  0  0  0  0  0  0  0  0  0
   -5.3547    7.7839   -0.5443 H   0  0  0  0  0  0  0  0  0  0  0  0
   -6.1031    8.1757   -2.9565 H   0  0  0  0  0  0  0  0  0  0  0  0
   -6.4135    6.3901   -3.0065 H   0  0  0  0  0  0  0  0  0  0  0  0
   -7.3757    8.4922   -1.3729 H   0  0  0  0  0  0  0  0  0  0  0  0
   -9.0653    5.0344   -3.2272 H   0  0  0  0  0  0  0  0  0  0  0  0
   -9.8947    6.3857   -4.0714 H   0  0  0  0  0  0  0  0  0  0  0  0
   -8.1008    6.2928   -4.0714 H   0  0  0  0  0  0  0  0  0  0  0  0
  -10.3028    7.5767   -0.6994 H   0  0  0  0  0  0  0  0  0  0  0  0
  -10.3009    8.5785   -2.1904 H   0  0  0  0  0  0  0  0  0  0  0  0
  -11.0997    6.9696   -2.1904 H   0  0  0  0  0  0  0  0  0  0  0  0
   -3.5156    9.2164   -2.3515 H   0  0  0  0  0  0  0  0  0  0  0  0
   -4.7314    9.7634   -0.3361 H   0  0  0  0  0  0  0  0  0  0  0  0
   -4.2641    8.2406    0.4512 H   0  0  0  0  0  0  0  0  0  0  0  0
   -3.1452   10.8106    1.0085 H   0  0  0  0  0  0  0  0  0  0  0  0
   -2.4193    9.2873    1.5134 H   0  0  0  0  0  0  0  0  0  0  0  0
   -2.3988   12.1150   -0.5440 H   0  0  0  0  0  0  0  0  0  0  0  0
   -1.2751   11.6523   -1.8669 H   0  0  0  0  0  0  0  0  0  0  0  0
   -2.9635   11.0389   -1.8669 H   0  0  0  0  0  0  0  0  0  0  0  0
   -0.1019    9.3649    0.8130 H   0  0  0  0  0  0  0  0  0  0  0  0
   -0.9513   11.6785    1.5631 H   0  0  0  0  0  0  0  0  0  0  0  0
    0.8211   11.2115    1.7372 H   0  0  0  0  0  0  0  0  0  0  0  0
    0.3389   13.6601    0.8958 H   0  0  0  0  0  0  0  0  0  0  0  0
    0.3818   11.4587   -2.4908 H   0  0  0  0  0  0  0  0  0  0  0  0
    3.3294   11.5552   -1.6019 H   0  0  0  0  0  0  0  0  0  0  0  0
    2.6544   10.7056   -3.0631 H   0  0  0  0  0  0  0  0  0  0  0  0
    3.7546   12.8432   -3.6474 H   0  0  0  0  0  0  0  0  0  0  0  0
    1.9885   12.8301   -4.0292 H   0  0  0  0  0  0  0  0  0  0  0  0
    2.5496   14.9490   -3.0512 H   0  0  0  0  0  0  0  0  0  0  0  0
    3.4110   14.9200   -0.8340 H   0  0  0  0  0  0  0  0  0  0  0  0
   -0.9156   14.5080   -2.1405 H   0  0  0  0  0  0  0  0  0  0  0  0
    0.2686   15.1971   -3.3021 H   0  0  0  0  0  0  0  0  0  0  0  0
   -0.0669   13.4324   -3.3021 H   0  0  0  0  0  0  0  0  0  0  0  0
    1.1545   15.0235    0.3405 H   0  0  0  0  0  0  0  0  0  0  0  0
    2.0398   15.9698   -0.9035 H   0  0  0  0  0  0  0  0  0  0  0  0
    0.2437   15.9452   -0.9035 H   0  0  0  0  0  0  0  0  0  0  0  0
    2.0629    9.7711    0.8999 H   0  0  0  0  0  0  0  0  0  0  0  0
    2.5139    8.6891   -0.4611 H   0  0  0  0  0  0  0  0  0  0  0  0
    3.0498   10.4036   -0.4611 H   0  0  0  0  0  0  0  0  0  0  0  0
    1.2321    9.2062   -2.8908 H   0  0  0  0  0  0  0  0  0  0  0  0
    0.9327    8.0483   -1.4749 H   0  0  0  0  0  0  0  0  0  0  0  0
   -1.1272    9.6233   -3.0433 H   0  0  0  0  0  0  0  0  0  0  0  0
   -0.8911    7.8327   -2.9695 H   0  0  0  0  0  0  0  0  0  0  0  0
   -1.3942    7.6691    0.7162 H   0  0  0  0  0  0  0  0  0  0  0  0
   -1.9850    6.6000   -0.6009 H   0  0  0  0  0  0  0  0  0  0  0  0
   -0.2806    7.1672   -0.6009 H   0  0  0  0  0  0  0  0  0  0  0  0
  1  2  1  0
  2  3  1  0
  3  4  1  0
  4  5  1  0
  5  6  1  0
  6  7  1  0
  7  8  1  0
  7  9  1  0
  2 10  1  0
 10 11  1  0
 11 12  1  0
 12 13  1  0
 13 14  1  6
 13 15  1  0
 15 16  1  0
 16 17  1  0
 17 18  2  0
 18 19  1  0
 19 20  1  0
 20 21  1  0
 21 22  1  0
 22 23  1  0
 22 24  1  0
 24 25  1  0
 24 26  1  0
 19 27  1  0
 27 28  1  1
 27 29  1  0
 29 30  1  0
 30 31  1  0
 31 32  1  1
  7  5  1  0
 31 10  1  0
 31 13  1  0
 27 15  1  0
 24 18  1  0
  1 33  1  0
  1 34  1  0
  1 35  1  0
  2 36  1  1
  3 37  1  0
  3 38  1  0
  4 39  1  0
  4 40  1  0
  5 41  1  1
  8 42  1  0
  8 43  1  0
  8 44  1  0
  9 45  1  0
  9 46  1  0
  9 47  1  0
 10 48  1  6
 11 49  1  0
 11 50  1  0
 12 51  1  0
 12 52  1  0
 14 53  1  0
 14 54  1  0
 14 55  1  0
 15 56  1  1
 16 57  1  0
 16 58  1  0
 17 59  1  0
 19 60  1  6
 20 61  1  0
 20 62  1  0
 21 63  1  0
 21 64  1  0
 22 65  1  6
 23 66  1  0
 25 67  1  0
 25 68  1  0
 25 69  1  0
 26 70  1  0
 26 71  1  0
 26 72  1  0
 28 73  1  0
 28 74  1  0
 28 75  1  0
 29 76  1  0
 29 77  1  0
 30 78  1  0
 30 79  1  0
 32 80  1  0
 32 81  1  0
 32 82  1  0
M  END
>  <meeko>  (12) 
{"is_sidechain": [false], "intermolecular_energy": 2.731, "internal_energy": -0.839}

$$$$
EPH_relaxed_0001_pdb2pqr_Repair_128_r2_0001_out
     RDKit          3D

 82 86  0  0  0  0  0  0  0  0999 V2000
    2.7880   18.7540   -1.2520 C   0  0  0  0  0  0  0  0  0  0  0  0
    2.4460   17.6870   -2.2960 C   0  0  2  0  0  0  0  0  0  0  0  0
    1.0250   17.8670   -2.8660 C   0  0  0  0  0  0  0  0  0  0  0  0
    0.3710   19.1970   -2.4810 C   0  0  0  0  0  0  0  0  0  0  0  0
   -0.9160   18.9880   -1.7420 C   0  0  2  0  0  0  0  0  0  0  0  0
   -1.5770   20.1940   -1.3380 O   0  0  0  0  0  0  0  0  0  0  0  0
   -1.1080   19.3430   -0.2790 C   0  0  0  0  0  0  0  0  0  0  0  0
    0.0010   19.9360    0.5320 C   0  0  0  0  0  0  0  0  0  0  0  0
   -2.2050   18.6680    0.4830 C   0  0  0  0  0  0  0  0  0  0  0  0
    2.5890   16.2980   -1.6850 C   0  0  1  0  0  0  0  0  0  0  0  0
    3.2640   16.3270   -0.2880 C   0  0  0  0  0  0  0  0  0  0  0  0
    2.6030   15.2030    0.5520 C   0  0  0  0  0  0  0  0  0  0  0  0
    1.8170   14.3580   -0.4770 C   0  0  1  0  0  0  0  0  0  0  0  0
    2.8840   13.4200   -1.1240 C   0  0  0  0  0  0  0  0  0  0  0  0
    0.5990   13.5510    0.0780 C   0  0  2  0  0  0  0  0  0  0  0  0
    0.9490   12.4780    1.1240 C   0  0  0  0  0  0  0  0  0  0  0  0
    1.2390   11.1210    0.5730 C   0  0  0  0  0  0  0  0  0  0  0  0
    0.9440   10.7030   -0.6720 C   0  0  0  0  0  0  0  0  0  0  0  0
    0.1660   11.6020   -1.6420 C   0  0  1  0  0  0  0  0  0  0  0  0
   -0.9590   10.7780   -2.3220 C   0  0  0  0  0  0  0  0  0  0  0  0
   -0.4340    9.5130   -2.9930 C   0  0  0  0  0  0  0  0  0  0  0  0
    0.2830    8.6180   -1.9860 C   0  0  2  0  0  0  0  0  0  0  0  0
   -0.6740    8.1240   -1.0450 O   0  0  0  0  0  0  0  0  0  0  0  0
    1.4320    9.3430   -1.2310 C   0  0  0  0  0  0  0  0  0  0  0  0
    2.6070    9.6110   -2.2040 C   0  0  0  0  0  0  0  0  0  0  0  0
    1.9780    8.3740   -0.1480 C   0  0  0  0  0  0  0  0  0  0  0  0
   -0.3610   12.9760   -1.0410 C   0  0  1  0  0  0  0  0  0  0  0  0
   -1.7520   12.7630   -0.3680 C   0  0  0  0  0  0  0  0  0  0  0  0
   -0.5890   13.9970   -2.2170 C   0  0  0  0  0  0  0  0  0  0  0  0
    0.6220   14.8510   -2.6400 C   0  0  0  0  0  0  0  0  0  0  0  0
    1.2890   15.4980   -1.4220 C   0  0  2  0  0  0  0  0  0  0  0  0
    0.2460   16.4650   -0.7640 C   0  0  0  0  0  0  0  0  0  0  0  0
    2.6541   18.3362   -0.2433 H   0  0  0  0  0  0  0  0  0  0  0  0
    3.8331   19.0719   -1.3814 H   0  0  0  0  0  0  0  0  0  0  0  0
    2.1225   19.6202   -1.3814 H   0  0  0  0  0  0  0  0  0  0  0  0
    3.1537   17.8015   -3.1303 H   0  0  0  0  0  0  0  0  0  0  0  0
    1.0815   17.8126   -3.9632 H   0  0  0  0  0  0  0  0  0  0  0  0
    0.4032   17.0672   -2.4375 H   0  0  0  0  0  0  0  0  0  0  0  0
    1.0630   19.7620   -1.8392 H   0  0  0  0  0  0  0  0  0  0  0  0
    0.1498   19.7508   -3.4053 H   0  0  0  0  0  0  0  0  0  0  0  0
   -1.1210   18.0694   -2.3113 H   0  0  0  0  0  0  0  0  0  0  0  0
   -0.2229   19.8163    1.6023 H   0  0  0  0  0  0  0  0  0  0  0  0
    0.9441   19.4218    0.2949 H   0  0  0  0  0  0  0  0  0  0  0  0
    0.0971   21.0058    0.2949 H   0  0  0  0  0  0  0  0  0  0  0  0
   -2.0240   18.7794    1.5623 H   0  0  0  0  0  0  0  0  0  0  0  0
   -3.1693   19.1292    0.2234 H   0  0  0  0  0  0  0  0  0  0  0  0
   -2.2280   17.5993    0.2234 H   0  0  0  0  0  0  0  0  0  0  0  0
    3.1775   15.8095   -2.4756 H   0  0  0  0  0  0  0  0  0  0  0  0
    4.3440   16.1419   -0.3852 H   0  0  0  0  0  0  0  0  0  0  0  0
    3.1342   17.3077    0.1930 H   0  0  0  0  0  0  0  0  0  0  0  0
    3.3680   14.5917    1.0531 H   0  0  0  0  0  0  0  0  0  0  0  0
    1.9549   15.6020    1.3462 H   0  0  0  0  0  0  0  0  0  0  0  0
    3.4574   12.9159   -0.3321 H   0  0  0  0  0  0  0  0  0  0  0  0
    2.3802   12.6670   -1.7479 H   0  0  0  0  0  0  0  0  0  0  0  0
    3.5662   14.0161   -1.7479 H   0  0  0  0  0  0  0  0  0  0  0  0
    0.0320   14.3223    0.6199 H   0  0  0  0  0  0  0  0  0  0  0  0
    1.8380   12.8181    1.6754 H   0  0  0  0  0  0  0  0  0  0  0  0
    0.0553   12.3655    1.7554 H   0  0  0  0  0  0  0  0  0  0  0  0
    1.7358   10.4020    1.2410 H   0  0  0  0  0  0  0  0  0  0  0  0
    0.8922   11.9358   -2.3977 H   0  0  0  0  0  0  0  0  0  0  0  0
   -1.6970   10.4916   -1.5583 H   0  0  0  0  0  0  0  0  0  0  0  0
   -1.4085   11.4083   -3.1035 H   0  0  0  0  0  0  0  0  0  0  0  0
   -1.2789    8.9596   -3.4287 H   0  0  0  0  0  0  0  0  0  0  0  0
    0.2815    9.8027   -3.7767 H   0  0  0  0  0  0  0  0  0  0  0  0
    0.7479    7.7951   -2.5488 H   0  0  0  0  0  0  0  0  0  0  0  0
   -0.3370    8.3170   -0.1530 H   0  0  0  0  0  0  0  0  0  0  0  0
    3.5203    9.8193   -1.6274 H   0  0  0  0  0  0  0  0  0  0  0  0
    2.7673    8.7263   -2.8378 H   0  0  0  0  0  0  0  0  0  0  0  0
    2.3678   10.4777   -2.8378 H   0  0  0  0  0  0  0  0  0  0  0  0
    1.7518    8.7755    0.8508 H   0  0  0  0  0  0  0  0  0  0  0  0
    1.5021    7.3891   -0.2637 H   0  0  0  0  0  0  0  0  0  0  0  0
    3.0670    8.2709   -0.2637 H   0  0  0  0  0  0  0  0  0  0  0  0
   -1.6367   12.7807    0.7258 H   0  0  0  0  0  0  0  0  0  0  0  0
   -2.4361   13.5669   -0.6776 H   0  0  0  0  0  0  0  0  0  0  0  0
   -2.1642   11.7913   -0.6776 H   0  0  0  0  0  0  0  0  0  0  0  0
   -0.9155   13.4235   -3.0971 H   0  0  0  0  0  0  0  0  0  0  0  0
   -1.3288   14.7158   -1.8349 H   0  0  0  0  0  0  0  0  0  0  0  0
    1.3537   14.2090   -3.1523 H   0  0  0  0  0  0  0  0  0  0  0  0
    0.2715   15.6478   -3.3125 H   0  0  0  0  0  0  0  0  0  0  0  0
    0.3213   16.3952    0.3312 H   0  0  0  0  0  0  0  0  0  0  0  0
    0.4529   17.4979   -1.0807 H   0  0  0  0  0  0  0  0  0  0  0  0
   -0.7683   16.1807   -1.0807 H   0  0  0  0  0  0  0  0  0  0  0  0
  1  2  1  0
  2  3  1  0
  3  4  1  0
  4  5  1  0
  5  6  1  0
  6  7  1  0
  7  8  1  0
  7  9  1  0
  2 10  1  0
 10 11  1  0
 11 12  1  0
 12 13  1  0
 13 14  1  6
 13 15  1  0
 15 16  1  0
 16 17  1  0
 17 18  2  0
 18 19  1  0
 19 20  1  0
 20 21  1  0
 21 22  1  0
 22 23  1  0
 22 24  1  0
 24 25  1  0
 24 26  1  0
 19 27  1  0
 27 28  1  1
 27 29  1  0
 29 30  1  0
 30 31  1  0
 31 32  1  1
  7  5  1  0
 31 10  1  0
 31 13  1  0
 27 15  1  0
 24 18  1  0
  1 33  1  0
  1 34  1  0
  1 35  1  0
  2 36  1  6
  3 37  1  0
  3 38  1  0
  4 39  1  0
  4 40  1  0
  5 41  1  1
  8 42  1  0
  8 43  1  0
  8 44  1  0
  9 45  1  0
  9 46  1  0
  9 47  1  0
 10 48  1  6
 11 49  1  0
 11 50  1  0
 12 51  1  0
 12 52  1  0
 14 53  1  0
 14 54  1  0
 14 55  1  0
 15 56  1  1
 16 57  1  0
 16 58  1  0
 17 59  1  0
 19 60  1  6
 20 61  1  0
 20 62  1  0
 21 63  1  0
 21 64  1  0
 22 65  1  6
 23 66  1  0
 25 67  1  0
 25 68  1  0
 25 69  1  0
 26 70  1  0
 26 71  1  0
 26 72  1  0
 28 73  1  0
 28 74  1  0
 28 75  1  0
 29 76  1  0
 29 77  1  0
 30 78  1  0
 30 79  1  0
 32 80  1  0
 32 81  1  0
 32 82  1  0
M  END
>  <meeko>  (13) 
{"is_sidechain": [false], "intermolecular_energy": 2.731, "internal_energy": -0.839}

$$$$
EPH_relaxed_0001_pdb2pqr_Repair_128_r2_0001_out
     RDKit          3D

 82 86  0  0  0  0  0  0  0  0999 V2000
    0.4880    7.9770   -2.5930 C   0  0  0  0  0  0  0  0  0  0  0  0
   -0.8820    8.3170   -2.0000 C   0  0  2  0  0  0  0  0  0  0  0  0
   -2.0380    7.7360   -2.8380 C   0  0  0  0  0  0  0  0  0  0  0  0
   -3.3050    7.4530   -2.0270 C   0  0  0  0  0  0  0  0  0  0  0  0
   -4.2920    6.6370   -2.8060 C   0  0  2  0  0  0  0  0  0  0  0  0
   -5.0360    7.3730   -3.7860 O   0  0  0  0  0  0  0  0  0  0  0  0
   -5.7940    6.8160   -2.7000 C   0  0  0  0  0  0  0  0  0  0  0  0
   -6.3960    7.8400   -1.7890 C   0  0  0  0  0  0  0  0  0  0  0  0
   -6.6810    5.6800   -3.1040 C   0  0  0  0  0  0  0  0  0  0  0  0
   -1.0350    9.8290   -1.8790 C   0  0  1  0  0  0  0  0  0  0  0  0
   -2.4800   10.2550   -1.5070 C   0  0  0  0  0  0  0  0  0  0  0  0
   -2.3580   11.5030   -0.5950 C   0  0  0  0  0  0  0  0  0  0  0  0
   -0.8850   11.9500   -0.7400 C   0  0  1  0  0  0  0  0  0  0  0  0
   -0.8410   12.7630   -2.0720 C   0  0  0  0  0  0  0  0  0  0  0  0
   -0.2890   12.7650    0.4530 C   0  0  2  0  0  0  0  0  0  0  0  0
   -0.9730   14.1150    0.7280 C   0  0  0  0  0  0  0  0  0  0  0  0
   -0.3900   15.2840    0.0050 C   0  0  0  0  0  0  0  0  0  0  0  0
    0.8090   15.3070   -0.6060 C   0  0  0  0  0  0  0  0  0  0  0  0
    1.7590   14.1050   -0.5230 C   0  0  1  0  0  0  0  0  0  0  0  0
    3.1900   14.5980   -0.1850 C   0  0  0  0  0  0  0  0  0  0  0  0
    3.6850   15.6660   -1.1550 C   0  0  0  0  0  0  0  0  0  0  0  0
    2.7460   16.8700   -1.1660 C   0  0  2  0  0  0  0  0  0  0  0  0
    2.8120   17.5180    0.1090 O   0  0  0  0  0  0  0  0  0  0  0  0
    1.2730   16.4940   -1.4850 C   0  0  0  0  0  0  0  0  0  0  0  0
    1.1530   16.0740   -2.9710 C   0  0  0  0  0  0  0  0  0  0  0  0
    0.4080   17.7740   -1.3260 C   0  0  0  0  0  0  0  0  0  0  0  0
    1.2860   12.9120    0.4150 C   0  0  1  0  0  0  0  0  0  0  0  0
    1.7440   13.1760    1.8830 C   0  0  0  0  0  0  0  0  0  0  0  0
    2.0010   11.5850   -0.0410 C   0  0  0  0  0  0  0  0  0  0  0  0
    1.3020   10.7620   -1.1400 C   0  0  0  0  0  0  0  0  0  0  0  0
   -0.1780   10.5470   -0.8060 C   0  0  2  0  0  0  0  0  0  0  0  0
   -0.2530    9.7120    0.5170 C   0  0  0  0  0  0  0  0  0  0  0  0
    1.2059    7.7988   -1.7789 H   0  0  0  0  0  0  0  0  0  0  0  0
    0.4048    7.0722   -3.2131 H   0  0  0  0  0  0  0  0  0  0  0  0
    0.8375    8.8157   -3.2131 H   0  0  0  0  0  0  0  0  0  0  0  0
   -0.9342    7.8568   -1.0023 H   0  0  0  0  0  0  0  0  0  0  0  0
   -2.2873    8.4557   -3.6316 H   0  0  0  0  0  0  0  0  0  0  0  0
   -1.6913    6.7721   -3.2389 H   0  0  0  0  0  0  0  0  0  0  0  0
   -3.0290    6.9032   -1.1151 H   0  0  0  0  0  0  0  0  0  0  0  0
   -3.7758    8.4159   -1.7799 H   0  0  0  0  0  0  0  0  0  0  0  0
   -3.6484    5.7478   -2.7350 H   0  0  0  0  0  0  0  0  0  0  0  0
   -6.2236    7.5467   -0.7429 H   0  0  0  0  0  0  0  0  0  0  0  0
   -5.9291    8.8180   -1.9773 H   0  0  0  0  0  0  0  0  0  0  0  0
   -7.4776    7.9077   -1.9773 H   0  0  0  0  0  0  0  0  0  0  0  0
   -7.0705    5.1811   -2.2044 H   0  0  0  0  0  0  0  0  0  0  0  0
   -7.5201    6.0648   -3.7023 H   0  0  0  0  0  0  0  0  0  0  0  0
   -6.1042    4.9593   -3.7023 H   0  0  0  0  0  0  0  0  0  0  0  0
   -0.7072   10.1286   -2.8854 H   0  0  0  0  0  0  0  0  0  0  0  0
   -3.0473   10.5041   -2.4159 H   0  0  0  0  0  0  0  0  0  0  0  0
   -3.0117    9.4407   -0.9929 H   0  0  0  0  0  0  0  0  0  0  0  0
   -3.0399   12.2979   -0.9314 H   0  0  0  0  0  0  0  0  0  0  0  0
   -2.6266   11.2844    0.4491 H   0  0  0  0  0  0  0  0  0  0  0  0
   -0.7828   13.8375   -1.8440 H   0  0  0  0  0  0  0  0  0  0  0  0
    0.0423   12.4636   -2.6553 H   0  0  0  0  0  0  0  0  0  0  0  0
   -1.7514   12.5607   -2.6553 H   0  0  0  0  0  0  0  0  0  0  0  0
   -0.5294   12.1276    1.3167 H   0  0  0  0  0  0  0  0  0  0  0  0
   -2.0296   14.0266    0.4351 H   0  0  0  0  0  0  0  0  0  0  0  0
   -0.8284   14.3168    1.7996 H   0  0  0  0  0  0  0  0  0  0  0  0
   -0.9913   16.2044   -0.0314 H   0  0  0  0  0  0  0  0  0  0  0  0
    1.7510   13.6410   -1.5203 H   0  0  0  0  0  0  0  0  0  0  0  0
    3.1871   15.0188    0.8313 H   0  0  0  0  0  0  0  0  0  0  0  0
    3.8678   13.7352   -0.2640 H   0  0  0  0  0  0  0  0  0  0  0  0
    4.6885   15.9948   -0.8471 H   0  0  0  0  0  0  0  0  0  0  0  0
    3.7153   15.2349   -2.1666 H   0  0  0  0  0  0  0  0  0  0  0  0
    3.0798   17.5417   -1.9706 H   0  0  0  0  0  0  0  0  0  0  0  0
    3.5900   17.1680    0.5760 H   0  0  0  0  0  0  0  0  0  0  0  0
    0.8512   15.0179   -3.0303 H   0  0  0  0  0  0  0  0  0  0  0  0
    0.3977   16.6997   -3.4690 H   0  0  0  0  0  0  0  0  0  0  0  0
    2.1249   16.2062   -3.4690 H   0  0  0  0  0  0  0  0  0  0  0  0
    0.2632   17.9882   -0.2568 H   0  0  0  0  0  0  0  0  0  0  0  0
    0.9182   18.6231   -1.8043 H   0  0  0  0  0  0  0  0  0  0  0  0
   -0.5701   17.6173   -1.8043 H   0  0  0  0  0  0  0  0  0  0  0  0
    1.0063   12.7508    2.5794 H   0  0  0  0  0  0  0  0  0  0  0  0
    2.7228   12.7036    2.0523 H   0  0  0  0  0  0  0  0  0  0  0  0
    1.8258   14.2598    2.0523 H   0  0  0  0  0  0  0  0  0  0  0  0
    3.0001   11.8561   -0.4129 H   0  0  0  0  0  0  0  0  0  0  0  0
    2.0003   10.9374    0.8481 H   0  0  0  0  0  0  0  0  0  0  0  0
    1.3807   11.2990   -2.0968 H   0  0  0  0  0  0  0  0  0  0  0  0
    1.7926    9.7798   -1.2085 H   0  0  0  0  0  0  0  0  0  0  0  0
   -0.1922   10.3890    1.3818 H   0  0  0  0  0  0  0  0  0  0  0  0
   -1.2043    9.1606    0.5492 H   0  0  0  0  0  0  0  0  0  0  0  0
    0.5848    8.9999    0.5492 H   0  0  0  0  0  0  0  0  0  0  0  0
  1  2  1  0
  2  3  1  0
  3  4  1  0
  4  5  1  0
  5  6  1  0
  6  7  1  0
  7  8  1  0
  7  9  1  0
  2 10  1  0
 10 11  1  0
 11 12  1  0
 12 13  1  0
 13 14  1  6
 13 15  1  0
 15 16  1  0
 16 17  1  0
 17 18  2  0
 18 19  1  0
 19 20  1  0
 20 21  1  0
 21 22  1  0
 22 23  1  0
 22 24  1  0
 24 25  1  0
 24 26  1  0
 19 27  1  0
 27 28  1  1
 27 29  1  0
 29 30  1  0
 30 31  1  0
 31 32  1  1
  7  5  1  0
 31 10  1  0
 31 13  1  0
 27 15  1  0
 24 18  1  0
  1 33  1  0
  1 34  1  0
  1 35  1  0
  2 36  1  1
  3 37  1  0
  3 38  1  0
  4 39  1  0
  4 40  1  0
  5 41  1  6
  8 42  1  0
  8 43  1  0
  8 44  1  0
  9 45  1  0
  9 46  1  0
  9 47  1  0
 10 48  1  6
 11 49  1  0
 11 50  1  0
 12 51  1  0
 12 52  1  0
 14 53  1  0
 14 54  1  0
 14 55  1  0
 15 56  1  1
 16 57  1  0
 16 58  1  0
 17 59  1  0
 19 60  1  6
 20 61  1  0
 20 62  1  0
 21 63  1  0
 21 64  1  0
 22 65  1  6
 23 66  1  0
 25 67  1  0
 25 68  1  0
 25 69  1  0
 26 70  1  0
 26 71  1  0
 26 72  1  0
 28 73  1  0
 28 74  1  0
 28 75  1  0
 29 76  1  0
 29 77  1  0
 30 78  1  0
 30 79  1  0
 32 80  1  0
 32 81  1  0
 32 82  1  0
M  END
>  <meeko>  (14) 
{"is_sidechain": [false], "intermolecular_energy": 2.731, "internal_energy": -0.839}

$$$$
EPH_relaxed_0001_pdb2pqr_Repair_128_r2_0001_out
     RDKit          3D

 82 86  0  0  0  0  0  0  0  0999 V2000
    0.4210   10.0250   -4.8990 C   0  0  0  0  0  0  0  0  0  0  0  0
    1.3670   10.6780   -3.8870 C   0  0  2  0  0  0  0  0  0  0  0  0
    1.6950    9.7390   -2.7090 C   0  0  0  0  0  0  0  0  0  0  0  0
    0.5810    8.7380   -2.3900 C   0  0  0  0  0  0  0  0  0  0  0  0
   -0.2220    9.1640   -1.1980 C   0  0  2  0  0  0  0  0  0  0  0  0
   -0.6840    8.0870   -0.3720 O   0  0  0  0  0  0  0  0  0  0  0  0
   -1.6990    8.8600   -1.0320 C   0  0  0  0  0  0  0  0  0  0  0  0
   -2.4610    8.1000   -2.0730 C   0  0  0  0  0  0  0  0  0  0  0  0
   -2.5060    9.7130   -0.1040 C   0  0  0  0  0  0  0  0  0  0  0  0
    0.7550   11.9730   -3.3650 C   0  0  1  0  0  0  0  0  0  0  0  0
   -0.7270   11.8050   -2.9380 C   0  0  0  0  0  0  0  0  0  0  0  0
   -0.9500   12.7360   -1.7180 C   0  0  0  0  0  0  0  0  0  0  0  0
    0.2990   13.6480   -1.6900 C   0  0  1  0  0  0  0  0  0  0  0  0
    0.0100   14.7570   -2.7500 C   0  0  0  0  0  0  0  0  0  0  0  0
    0.6770   14.2590   -0.3020 C   0  0  2  0  0  0  0  0  0  0  0  0
   -0.3780   15.1990    0.3060 C   0  0  0  0  0  0  0  0  0  0  0  0
   -0.2320   16.6400   -0.0540 C   0  0  0  0  0  0  0  0  0  0  0  0
    0.8630   17.2040   -0.5970 C   0  0  0  0  0  0  0  0  0  0  0  0
    2.1440   16.3880   -0.8130 C   0  0  1  0  0  0  0  0  0  0  0  0
    3.3660   17.1990   -0.3090 C   0  0  0  0  0  0  0  0  0  0  0  0
    3.4460   18.5870   -0.9360 C   0  0  0  0  0  0  0  0  0  0  0  0
    2.1790   19.3890   -0.6500 C   0  0  2  0  0  0  0  0  0  0  0  0
    2.1110   19.6590    0.7530 O   0  0  0  0  0  0  0  0  0  0  0  0
    0.8810   18.6660   -1.1070 C   0  0  0  0  0  0  0  0  0  0  0  0
    0.8140   18.6420   -2.6540 C   0  0  0  0  0  0  0  0  0  0  0  0
   -0.3300   19.5150   -0.6330 C   0  0  0  0  0  0  0  0  0  0  0  0
    2.1220   14.9020   -0.2490 C   0  0  1  0  0  0  0  0  0  0  0  0
    2.5580   14.8950    1.2490 C   0  0  0  0  0  0  0  0  0  0  0  0
    3.1890   14.0420   -1.0250 C   0  0  0  0  0  0  0  0  0  0  0  0
    2.7210   13.3650   -2.3270 C   0  0  0  0  0  0  0  0  0  0  0  0
    1.4050   12.6120   -2.1120 C   0  0  2  0  0  0  0  0  0  0  0  0
    1.6700   11.4750   -1.0670 C   0  0  0  0  0  0  0  0  0  0  0  0
   -0.3695    9.4794   -4.3629 H   0  0  0  0  0  0  0  0  0  0  0  0
   -0.0337   10.8025   -5.5305 H   0  0  0  0  0  0  0  0  0  0  0  0
    0.9867    9.3242   -5.5305 H   0  0  0  0  0  0  0  0  0  0  0  0
    2.3107   10.8956   -4.4086 H   0  0  0  0  0  0  0  0  0  0  0  0
    2.6068    9.1761   -2.9573 H   0  0  0  0  0  0  0  0  0  0  0  0
    1.8218   10.3728   -1.8189 H   0  0  0  0  0  0  0  0  0  0  0  0
   -0.0872    8.6588   -3.2602 H   0  0  0  0  0  0  0  0  0  0  0  0
    1.0465    7.7680   -2.1612 H   0  0  0  0  0  0  0  0  0  0  0  0
    0.3527   10.0983   -1.1151 H   0  0  0  0  0  0  0  0  0  0  0  0
   -3.1581    7.4047   -1.5825 H   0  0  0  0  0  0  0  0  0  0  0  0
   -3.0266    8.8044   -2.7006 H   0  0  0  0  0  0  0  0  0  0  0  0
   -1.7581    7.5326   -2.7006 H   0  0  0  0  0  0  0  0  0  0  0  0
   -2.2618    9.4549    0.9370 H   0  0  0  0  0  0  0  0  0  0  0  0
   -2.2722   10.7728   -0.2835 H   0  0  0  0  0  0  0  0  0  0  0  0
   -3.5771    9.5383   -0.2835 H   0  0  0  0  0  0  0  0  0  0  0  0
    0.9138   12.6179   -4.2419 H   0  0  0  0  0  0  0  0  0  0  0  0
   -1.3941   12.0955   -3.7630 H   0  0  0  0  0  0  0  0  0  0  0  0
   -0.9476   10.7584   -2.6814 H   0  0  0  0  0  0  0  0  0  0  0  0
   -1.8644   13.3336   -1.8475 H   0  0  0  0  0  0  0  0  0  0  0  0
   -1.0768   12.1733   -0.7814 H   0  0  0  0  0  0  0  0  0  0  0  0
   -0.2355   15.6989   -2.2376 H   0  0  0  0  0  0  0  0  0  0  0  0
    0.9000   14.9032   -3.3797 H   0  0  0  0  0  0  0  0  0  0  0  0
   -0.8382   14.4503   -3.3797 H   0  0  0  0  0  0  0  0  0  0  0  0
    0.6976   13.3721    0.3483 H   0  0  0  0  0  0  0  0  0  0  0  0
   -1.3688   14.8627   -0.0335 H   0  0  0  0  0  0  0  0  0  0  0  0
   -0.2430   15.1428    1.3962 H   0  0  0  0  0  0  0  0  0  0  0  0
   -1.0924   17.2971    0.1410 H   0  0  0  0  0  0  0  0  0  0  0  0
    2.2245   16.2292   -1.8985 H   0  0  0  0  0  0  0  0  0  0  0  0
    3.2900   17.3092    0.7828 H   0  0  0  0  0  0  0  0  0  0  0  0
    4.2738   16.6492   -0.5983 H   0  0  0  0  0  0  0  0  0  0  0  0
    4.3121   19.1212   -0.5184 H   0  0  0  0  0  0  0  0  0  0  0  0
    3.5518   18.4746   -2.0251 H   0  0  0  0  0  0  0  0  0  0  0  0
    2.2401   20.3212   -1.2308 H   0  0  0  0  0  0  0  0  0  0  0  0
    2.4560   18.8790    1.2200 H   0  0  0  0  0  0  0  0  0  0  0  0
   -0.1772   18.2870   -2.9726 H   0  0  0  0  0  0  0  0  0  0  0  0
    0.9829   19.6565   -3.0441 H   0  0  0  0  0  0  0  0  0  0  0  0
    1.5887   17.9655   -3.0441 H   0  0  0  0  0  0  0  0  0  0  0  0
   -0.3567   19.5337    0.4665 H   0  0  0  0  0  0  0  0  0  0  0  0
   -0.2299   20.5417   -1.0149 H   0  0  0  0  0  0  0  0  0  0  0  0
   -1.2611   19.0709   -1.0149 H   0  0  0  0  0  0  0  0  0  0  0  0
    1.6648   14.9093    1.8909 H   0  0  0  0  0  0  0  0  0  0  0  0
    3.1439   13.9873    1.4561 H   0  0  0  0  0  0  0  0  0  0  0  0
    3.1727   15.7834    1.4561 H   0  0  0  0  0  0  0  0  0  0  0  0
    4.0301   14.7042   -1.2779 H   0  0  0  0  0  0  0  0  0  0  0  0
    3.4419   13.2150   -0.3452 H   0  0  0  0  0  0  0  0  0  0  0  0
    2.5732   14.1342   -3.0993 H   0  0  0  0  0  0  0  0  0  0  0  0
    3.4895   12.6442   -2.6429 H   0  0  0  0  0  0  0  0  0  0  0  0
    1.5750   11.8826   -0.0497 H   0  0  0  0  0  0  0  0  0  0  0  0
    0.9358   10.6682   -1.2088 H   0  0  0  0  0  0  0  0  0  0  0  0
    2.6852   11.0760   -1.2088 H   0  0  0  0  0  0  0  0  0  0  0  0
  1  2  1  0
  2  3  1  0
  3  4  1  0
  4  5  1  0
  5  6  1  0
  6  7  1  0
  7  8  1  0
  7  9  1  0
  2 10  1  0
 10 11  1  0
 11 12  1  0
 12 13  1  0
 13 14  1  6
 13 15  1  0
 15 16  1  0
 16 17  1  0
 17 18  2  0
 18 19  1  0
 19 20  1  0
 20 21  1  0
 21 22  1  0
 22 23  1  0
 22 24  1  0
 24 25  1  0
 24 26  1  0
 19 27  1  0
 27 28  1  1
 27 29  1  0
 29 30  1  0
 30 31  1  0
 31 32  1  1
  7  5  1  0
 31 10  1  0
 31 13  1  0
 27 15  1  0
 24 18  1  0
  1 33  1  0
  1 34  1  0
  1 35  1  0
  2 36  1  6
  3 37  1  0
  3 38  1  0
  4 39  1  0
  4 40  1  0
  5 41  1  1
  8 42  1  0
  8 43  1  0
  8 44  1  0
  9 45  1  0
  9 46  1  0
  9 47  1  0
 10 48  1  6
 11 49  1  0
 11 50  1  0
 12 51  1  0
 12 52  1  0
 14 53  1  0
 14 54  1  0
 14 55  1  0
 15 56  1  1
 16 57  1  0
 16 58  1  0
 17 59  1  0
 19 60  1  6
 20 61  1  0
 20 62  1  0
 21 63  1  0
 21 64  1  0
 22 65  1  6
 23 66  1  0
 25 67  1  0
 25 68  1  0
 25 69  1  0
 26 70  1  0
 26 71  1  0
 26 72  1  0
 28 73  1  0
 28 74  1  0
 28 75  1  0
 29 76  1  0
 29 77  1  0
 30 78  1  0
 30 79  1  0
 32 80  1  0
 32 81  1  0
 32 82  1  0
M  END
>  <meeko>  (15) 
{"is_sidechain": [false], "intermolecular_energy": 2.731, "internal_energy": -0.839}

$$$$
EPH_relaxed_0001_pdb2pqr_Repair_128_r2_0001_out
     RDKit          3D

 82 86  0  0  0  0  0  0  0  0999 V2000
    1.2700   18.6790   -1.5430 C   0  0  0  0  0  0  0  0  0  0  0  0
    1.7810   17.7220   -2.6240 C   0  0  2  0  0  0  0  0  0  0  0  0
    0.7520   17.5180   -3.7540 C   0  0  0  0  0  0  0  0  0  0  0  0
    1.1610   16.4520   -4.7730 C   0  0  0  0  0  0  0  0  0  0  0  0
    0.1350   16.2970   -5.8540 C   0  0  2  0  0  0  0  0  0  0  0  0
    0.1150   15.0070   -6.4810 O   0  0  0  0  0  0  0  0  0  0  0  0
    0.4840   16.1130   -7.3190 C   0  0  0  0  0  0  0  0  0  0  0  0
    1.9070   16.0770   -7.7830 C   0  0  0  0  0  0  0  0  0  0  0  0
   -0.5450   16.4590   -8.3500 C   0  0  0  0  0  0  0  0  0  0  0  0
    2.1430   16.3790   -2.0000 C   0  0  1  0  0  0  0  0  0  0  0  0
    3.0640   16.5250   -0.7590 C   0  0  0  0  0  0  0  0  0  0  0  0
    2.6600   15.4040    0.2320 C   0  0  0  0  0  0  0  0  0  0  0  0
    1.7620   14.4560   -0.5960 C   0  0  1  0  0  0  0  0  0  0  0  0
    2.7570   13.5610   -1.3990 C   0  0  0  0  0  0  0  0  0  0  0  0
    0.7350   13.5970    0.2110 C   0  0  2  0  0  0  0  0  0  0  0  0
    1.3560   12.6050    1.2100 C   0  0  0  0  0  0  0  0  0  0  0  0
    1.6400   11.2440    0.6650 C   0  0  0  0  0  0  0  0  0  0  0  0
    1.1500   10.7440   -0.4850 C   0  0  0  0  0  0  0  0  0  0  0  0
    0.1370   11.5380   -1.3210 C   0  0  1  0  0  0  0  0  0  0  0  0
   -1.0290   10.6060   -1.7420 C   0  0  0  0  0  0  0  0  0  0  0  0
   -0.5430    9.3470   -2.4550 C   0  0  0  0  0  0  0  0  0  0  0  0
    0.4160    8.5550   -1.5700 C   0  0  2  0  0  0  0  0  0  0  0  0
   -0.3070    8.0460   -0.4450 O   0  0  0  0  0  0  0  0  0  0  0  0
    1.6280    9.3950   -1.0750 C   0  0  0  0  0  0  0  0  0  0  0  0
    2.5750    9.6910   -2.2640 C   0  0  0  0  0  0  0  0  0  0  0  0
    2.4390    8.5210   -0.0810 C   0  0  0  0  0  0  0  0  0  0  0  0
   -0.3710   12.9010   -0.6820 C   0  0  1  0  0  0  0  0  0  0  0  0
   -1.5910   12.6290    0.2510 C   0  0  0  0  0  0  0  0  0  0  0  0
   -0.8930   13.8440   -1.8310 C   0  0  0  0  0  0  0  0  0  0  0  0
    0.1480   14.7550   -2.5080 C   0  0  0  0  0  0  0  0  0  0  0  0
    0.9800   15.5070   -1.4650 C   0  0  2  0  0  0  0  0  0  0  0  0
    0.0090   16.4330   -0.6560 C   0  0  0  0  0  0  0  0  0  0  0  0
    1.4925   18.2624   -0.5495 H   0  0  0  0  0  0  0  0  0  0  0  0
    1.7675   19.6540   -1.6515 H   0  0  0  0  0  0  0  0  0  0  0  0
    0.1830   18.8079   -1.6515 H   0  0  0  0  0  0  0  0  0  0  0  0
    2.6764   18.1774   -3.0723 H   0  0  0  0  0  0  0  0  0  0  0  0
   -0.2050   17.2177   -3.3023 H   0  0  0  0  0  0  0  0  0  0  0  0
    0.6784   18.4713   -4.2979 H   0  0  0  0  0  0  0  0  0  0  0  0
    2.1185   16.7436   -5.2293 H   0  0  0  0  0  0  0  0  0  0  0  0
    1.2523   15.4907   -4.2461 H   0  0  0  0  0  0  0  0  0  0  0  0
   -0.5461   16.9904   -5.3389 H   0  0  0  0  0  0  0  0  0  0  0  0
    2.5768   16.0601   -6.9106 H   0  0  0  0  0  0  0  0  0  0  0  0
    2.0721   15.1744   -8.3897 H   0  0  0  0  0  0  0  0  0  0  0  0
    2.1176   16.9701   -8.3897 H   0  0  0  0  0  0  0  0  0  0  0  0
   -1.4739   16.7714   -7.8505 H   0  0  0  0  0  0  0  0  0  0  0  0
   -0.1723   17.2812   -8.9785 H   0  0  0  0  0  0  0  0  0  0  0  0
   -0.7448   15.5786   -8.9785 H   0  0  0  0  0  0  0  0  0  0  0  0
    2.6097   15.8922   -2.8690 H   0  0  0  0  0  0  0  0  0  0  0  0
    4.1175   16.4088   -1.0534 H   0  0  0  0  0  0  0  0  0  0  0  0
    2.9524   17.5179   -0.2990 H   0  0  0  0  0  0  0  0  0  0  0  0
    3.5497   14.8725    0.6007 H   0  0  0  0  0  0  0  0  0  0  0  0
    2.1435   15.7982    1.1196 H   0  0  0  0  0  0  0  0  0  0  0  0
    3.3875   12.9939   -0.6984 H   0  0  0  0  0  0  0  0  0  0  0  0
    2.1918   12.8614   -2.0323 H   0  0  0  0  0  0  0  0  0  0  0  0
    3.3930   14.1969   -2.0323 H   0  0  0  0  0  0  0  0  0  0  0  0
    0.2225   14.3548    0.8218 H   0  0  0  0  0  0  0  0  0  0  0  0
    2.3042   13.0323    1.5683 H   0  0  0  0  0  0  0  0  0  0  0  0
    0.6079   12.4646    2.0041 H   0  0  0  0  0  0  0  0  0  0  0  0
    2.3059   10.5951    1.2529 H   0  0  0  0  0  0  0  0  0  0  0  0
    0.6806   11.8819   -2.2133 H   0  0  0  0  0  0  0  0  0  0  0  0
   -1.5857   10.3085   -0.8411 H   0  0  0  0  0  0  0  0  0  0  0  0
   -1.6653   11.1636   -2.4450 H   0  0  0  0  0  0  0  0  0  0  0  0
   -1.4094    8.7159   -2.7019 H   0  0  0  0  0  0  0  0  0  0  0  0
   -0.0110    9.6450   -3.3705 H   0  0  0  0  0  0  0  0  0  0  0  0
    0.8280    7.7376   -2.1800 H   0  0  0  0  0  0  0  0  0  0  0  0
    0.3340    7.6220    0.1500 H   0  0  0  0  0  0  0  0  0  0  0  0
    3.5592    9.9986   -1.8811 H   0  0  0  0  0  0  0  0  0  0  0  0
    2.6872    8.7851   -2.8778 H   0  0  0  0  0  0  0  0  0  0  0  0
    2.1513   10.4996   -2.8778 H   0  0  0  0  0  0  0  0  0  0  0  0
    2.1789    8.8014    0.9504 H   0  0  0  0  0  0  0  0  0  0  0  0
    2.1981    7.4602   -0.2445 H   0  0  0  0  0  0  0  0  0  0  0  0
    3.5148    8.6821   -0.2445 H   0  0  0  0  0  0  0  0  0  0  0  0
   -1.2723   12.7001    1.3014 H   0  0  0  0  0  0  0  0  0  0  0  0
   -2.3760   13.3742    0.0548 H   0  0  0  0  0  0  0  0  0  0  0  0
   -1.9851   11.6209    0.0548 H   0  0  0  0  0  0  0  0  0  0  0  0
   -1.3340   13.2057   -2.6108 H   0  0  0  0  0  0  0  0  0  0  0  0
   -1.6007   14.5294   -1.3418 H   0  0  0  0  0  0  0  0  0  0  0  0
    0.8175   14.1388   -3.1260 H   0  0  0  0  0  0  0  0  0  0  0  0
   -0.3822   15.4909   -3.1303 H   0  0  0  0  0  0  0  0  0  0  0  0
    0.1693   16.2801    0.4215 H   0  0  0  0  0  0  0  0  0  0  0  0
    0.2078   17.4845   -0.9107 H   0  0  0  0  0  0  0  0  0  0  0  0
   -1.0318   16.1845   -0.9107 H   0  0  0  0  0  0  0  0  0  0  0  0
  1  2  1  0
  2  3  1  0
  3  4  1  0
  4  5  1  0
  5  6  1  0
  6  7  1  0
  7  8  1  0
  7  9  1  0
  2 10  1  0
 10 11  1  0
 11 12  1  0
 12 13  1  0
 13 14  1  6
 13 15  1  0
 15 16  1  0
 16 17  1  0
 17 18  2  0
 18 19  1  0
 19 20  1  0
 20 21  1  0
 21 22  1  0
 22 23  1  0
 22 24  1  0
 24 25  1  0
 24 26  1  0
 19 27  1  0
 27 28  1  1
 27 29  1  0
 29 30  1  0
 30 31  1  0
 31 32  1  1
  7  5  1  0
 31 10  1  0
 31 13  1  0
 27 15  1  0
 24 18  1  0
  1 33  1  0
  1 34  1  0
  1 35  1  0
  2 36  1  6
  3 37  1  0
  3 38  1  0
  4 39  1  0
  4 40  1  0
  5 41  1  6
  8 42  1  0
  8 43  1  0
  8 44  1  0
  9 45  1  0
  9 46  1  0
  9 47  1  0
 10 48  1  6
 11 49  1  0
 11 50  1  0
 12 51  1  0
 12 52  1  0
 14 53  1  0
 14 54  1  0
 14 55  1  0
 15 56  1  1
 16 57  1  0
 16 58  1  0
 17 59  1  0
 19 60  1  6
 20 61  1  0
 20 62  1  0
 21 63  1  0
 21 64  1  0
 22 65  1  6
 23 66  1  0
 25 67  1  0
 25 68  1  0
 25 69  1  0
 26 70  1  0
 26 71  1  0
 26 72  1  0
 28 73  1  0
 28 74  1  0
 28 75  1  0
 29 76  1  0
 29 77  1  0
 30 78  1  0
 30 79  1  0
 32 80  1  0
 32 81  1  0
 32 82  1  0
M  END
>  <meeko>  (16) 
{"is_sidechain": [false], "intermolecular_energy": 2.731, "internal_energy": -0.839}

$$$$
EPH_relaxed_0001_pdb2pqr_Repair_128_r2_0001_out
     RDKit          3D

 82 86  0  0  0  0  0  0  0  0999 V2000
    3.6120   17.5130   -0.1370 C   0  0  0  0  0  0  0  0  0  0  0  0
    2.5120   17.2150   -1.1590 C   0  0  2  0  0  0  0  0  0  0  0  0
    1.1210   17.6610   -0.6630 C   0  0  0  0  0  0  0  0  0  0  0  0
    0.1870   18.1230   -1.7840 C   0  0  0  0  0  0  0  0  0  0  0  0
   -0.6670   19.2770   -1.3530 C   0  0  2  0  0  0  0  0  0  0  0  0
   -0.3270   19.8300   -0.0750 O   0  0  0  0  0  0  0  0  0  0  0  0
   -1.6230   19.2170   -0.1760 C   0  0  0  0  0  0  0  0  0  0  0  0
   -1.7740   17.9740    0.6440 C   0  0  0  0  0  0  0  0  0  0  0  0
   -2.7560   20.1940   -0.1240 C   0  0  0  0  0  0  0  0  0  0  0  0
    2.4950   15.7260   -1.4860 C   0  0  1  0  0  0  0  0  0  0  0  0
    3.9120   15.1630   -1.7740 C   0  0  0  0  0  0  0  0  0  0  0  0
    3.9370   13.7130   -1.2240 C   0  0  0  0  0  0  0  0  0  0  0  0
    2.4540   13.3770   -0.9430 C   0  0  1  0  0  0  0  0  0  0  0  0
    1.8630   12.9750   -2.3310 C   0  0  0  0  0  0  0  0  0  0  0  0
    2.1870   12.2790    0.1380 C   0  0  2  0  0  0  0  0  0  0  0  0
    2.7390   10.8830   -0.2000 C   0  0  0  0  0  0  0  0  0  0  0  0
    1.8000    9.9870   -0.9380 C   0  0  0  0  0  0  0  0  0  0  0  0
    0.4740   10.1800   -1.0660 C   0  0  0  0  0  0  0  0  0  0  0  0
   -0.2270   11.3420   -0.3500 C   0  0  1  0  0  0  0  0  0  0  0  0
   -1.5160   10.8240    0.3400 C   0  0  0  0  0  0  0  0  0  0  0  0
   -2.4420   10.0900   -0.6260 C   0  0  0  0  0  0  0  0  0  0  0  0
   -1.7270    8.9070   -1.2740 C   0  0  2  0  0  0  0  0  0  0  0  0
   -1.4510    7.9280   -0.2680 O   0  0  0  0  0  0  0  0  0  0  0  0
   -0.4080    9.3060   -1.9920 C   0  0  0  0  0  0  0  0  0  0  0  0
   -0.7350   10.1250   -3.2650 C   0  0  0  0  0  0  0  0  0  0  0  0
    0.2830    8.0040   -2.4790 C   0  0  0  0  0  0  0  0  0  0  0  0
    0.6840   12.2040    0.6270 C   0  0  1  0  0  0  0  0  0  0  0  0
    0.7090   11.5520    2.0440 C   0  0  0  0  0  0  0  0  0  0  0  0
    0.0400   13.6290    0.8050 C   0  0  0  0  0  0  0  0  0  0  0  0
    0.4360   14.7040   -0.2250 C   0  0  0  0  0  0  0  0  0  0  0  0
    1.9570   14.7650   -0.3970 C   0  0  2  0  0  0  0  0  0  0  0  0
    2.5770   15.1890    0.9780 C   0  0  0  0  0  0  0  0  0  0  0  0
    3.2072   17.4033    0.8799 H   0  0  0  0  0  0  0  0  0  0  0  0
    4.4445   16.8080   -0.2783 H   0  0  0  0  0  0  0  0  0  0  0  0
    3.9748   18.5418   -0.2783 H   0  0  0  0  0  0  0  0  0  0  0  0
    2.7397   17.7927   -2.0670 H   0  0  0  0  0  0  0  0  0  0  0  0
    0.6488   16.8133   -0.1448 H   0  0  0  0  0  0  0  0  0  0  0  0
    1.2779   18.5240    0.0008 H   0  0  0  0  0  0  0  0  0  0  0  0
    0.7930   18.4312   -2.6487 H   0  0  0  0  0  0  0  0  0  0  0  0
   -0.4755   17.2849   -2.0460 H   0  0  0  0  0  0  0  0  0  0  0  0
   -0.8009   19.5975   -2.3967 H   0  0  0  0  0  0  0  0  0  0  0  0
   -1.7425   18.2335    1.7125 H   0  0  0  0  0  0  0  0  0  0  0  0
   -2.7368   17.4958    0.4111 H   0  0  0  0  0  0  0  0  0  0  0  0
   -0.9537   17.2792    0.4111 H   0  0  0  0  0  0  0  0  0  0  0  0
   -3.0062   20.4098    0.9252 H   0  0  0  0  0  0  0  0  0  0  0  0
   -2.4606   21.1253   -0.6295 H   0  0  0  0  0  0  0  0  0  0  0  0
   -3.6337   19.7649   -0.6295 H   0  0  0  0  0  0  0  0  0  0  0  0
    1.8141   15.7338   -2.3499 H   0  0  0  0  0  0  0  0  0  0  0  0
    4.1060   15.1609   -2.8567 H   0  0  0  0  0  0  0  0  0  0  0  0
    4.6871   15.7803   -1.2963 H   0  0  0  0  0  0  0  0  0  0  0  0
    4.3572   13.0220   -1.9696 H   0  0  0  0  0  0  0  0  0  0  0  0
    4.5638   13.6185   -0.3250 H   0  0  0  0  0  0  0  0  0  0  0  0
    0.9618   12.3620   -2.1822 H   0  0  0  0  0  0  0  0  0  0  0  0
    1.6002   13.8825   -2.8944 H   0  0  0  0  0  0  0  0  0  0  0  0
    2.6105   12.3972   -2.8944 H   0  0  0  0  0  0  0  0  0  0  0  0
    2.7826   12.6367    0.9908 H   0  0  0  0  0  0  0  0  0  0  0  0
    3.6397   11.0141   -0.8177 H   0  0  0  0  0  0  0  0  0  0  0  0
    2.9338   10.3913    0.7645 H   0  0  0  0  0  0  0  0  0  0  0  0
    2.2277    9.0941   -1.4174 H   0  0  0  0  0  0  0  0  0  0  0  0
   -0.4899   12.0679   -1.1336 H   0  0  0  0  0  0  0  0  0  0  0  0
   -1.2307   10.1341    1.1479 H   0  0  0  0  0  0  0  0  0  0  0  0
   -2.0615   11.6972    0.7273 H   0  0  0  0  0  0  0  0  0  0  0  0
   -3.3195    9.7220   -0.0741 H   0  0  0  0  0  0  0  0  0  0  0  0
   -2.7508   10.7897   -1.4166 H   0  0  0  0  0  0  0  0  0  0  0  0
   -2.3947    8.5025   -2.0490 H   0  0  0  0  0  0  0  0  0  0  0  0
   -2.2180    7.8940    0.3290 H   0  0  0  0  0  0  0  0  0  0  0  0
   -1.1285   11.1107   -2.9758 H   0  0  0  0  0  0  0  0  0  0  0  0
    0.1798   10.2561   -3.8617 H   0  0  0  0  0  0  0  0  0  0  0  0
   -1.4885    9.5900   -3.8617 H   0  0  0  0  0  0  0  0  0  0  0  0
    0.5987    7.4091   -1.6093 H   0  0  0  0  0  0  0  0  0  0  0  0
   -0.4234    7.4191   -3.0864 H   0  0  0  0  0  0  0  0  0  0  0  0
    1.1633    8.2612   -3.0864 H   0  0  0  0  0  0  0  0  0  0  0  0
    0.6788   12.3401    2.8108 H   0  0  0  0  0  0  0  0  0  0  0  0
   -0.1646   10.8937    2.1602 H   0  0  0  0  0  0  0  0  0  0  0  0
    1.6304   10.9625    2.1602 H   0  0  0  0  0  0  0  0  0  0  0  0
   -1.0524   13.5088    0.7572 H   0  0  0  0  0  0  0  0  0  0  0  0
    0.4215   13.9989    1.7681 H   0  0  0  0  0  0  0  0  0  0  0  0
   -0.0262   14.4620   -1.1934 H   0  0  0  0  0  0  0  0  0  0  0  0
    0.0844   15.6818    0.1359 H   0  0  0  0  0  0  0  0  0  0  0  0
    1.9708   14.7745    1.7970 H   0  0  0  0  0  0  0  0  0  0  0  0
    3.6047   14.8038    1.0512 H   0  0  0  0  0  0  0  0  0  0  0  0
    2.5907   16.2865    1.0512 H   0  0  0  0  0  0  0  0  0  0  0  0
  1  2  1  0
  2  3  1  0
  3  4  1  0
  4  5  1  0
  5  6  1  0
  6  7  1  0
  7  8  1  0
  7  9  1  0
  2 10  1  0
 10 11  1  0
 11 12  1  0
 12 13  1  0
 13 14  1  6
 13 15  1  0
 15 16  1  0
 16 17  1  0
 17 18  2  0
 18 19  1  0
 19 20  1  0
 20 21  1  0
 21 22  1  0
 22 23  1  0
 22 24  1  0
 24 25  1  0
 24 26  1  0
 19 27  1  0
 27 28  1  1
 27 29  1  0
 29 30  1  0
 30 31  1  0
 31 32  1  1
  7  5  1  0
 31 10  1  0
 31 13  1  0
 27 15  1  0
 24 18  1  0
  1 33  1  0
  1 34  1  0
  1 35  1  0
  2 36  1  6
  3 37  1  0
  3 38  1  0
  4 39  1  0
  4 40  1  0
  5 41  1  6
  8 42  1  0
  8 43  1  0
  8 44  1  0
  9 45  1  0
  9 46  1  0
  9 47  1  0
 10 48  1  6
 11 49  1  0
 11 50  1  0
 12 51  1  0
 12 52  1  0
 14 53  1  0
 14 54  1  0
 14 55  1  0
 15 56  1  1
 16 57  1  0
 16 58  1  0
 17 59  1  0
 19 60  1  6
 20 61  1  0
 20 62  1  0
 21 63  1  0
 21 64  1  0
 22 65  1  6
 23 66  1  0
 25 67  1  0
 25 68  1  0
 25 69  1  0
 26 70  1  0
 26 71  1  0
 26 72  1  0
 28 73  1  0
 28 74  1  0
 28 75  1  0
 29 76  1  0
 29 77  1  0
 30 78  1  0
 30 79  1  0
 32 80  1  0
 32 81  1  0
 32 82  1  0
M  END
>  <meeko>  (17) 
{"is_sidechain": [false], "intermolecular_energy": 2.731, "internal_energy": -0.839}

$$$$
EPH_relaxed_0001_pdb2pqr_Repair_128_r2_0001_out
     RDKit          3D

 82 86  0  0  0  0  0  0  0  0999 V2000
    0.6440   14.7970   -4.4930 C   0  0  0  0  0  0  0  0  0  0  0  0
    0.5330   14.1730   -3.1000 C   0  0  2  0  0  0  0  0  0  0  0  0
    1.8300   14.3410   -2.2830 C   0  0  0  0  0  0  0  0  0  0  0  0
    1.7780   15.4930   -1.2760 C   0  0  0  0  0  0  0  0  0  0  0  0
    1.5670   16.8130   -1.9540 C   0  0  2  0  0  0  0  0  0  0  0  0
    1.9730   17.9530   -1.1850 O   0  0  0  0  0  0  0  0  0  0  0  0
    0.5690   17.8510   -1.4740 C   0  0  0  0  0  0  0  0  0  0  0  0
   -0.2850   17.6130   -0.2680 C   0  0  0  0  0  0  0  0  0  0  0  0
    0.0780   18.8750   -2.4490 C   0  0  0  0  0  0  0  0  0  0  0  0
    0.1810   12.6950   -3.2180 C   0  0  1  0  0  0  0  0  0  0  0  0
    1.4250   11.8020   -3.4720 C   0  0  0  0  0  0  0  0  0  0  0  0
    1.1740   10.4640   -2.7300 C   0  0  0  0  0  0  0  0  0  0  0  0
   -0.3260   10.5000   -2.3580 C   0  0  1  0  0  0  0  0  0  0  0  0
   -1.0730   10.0640   -3.6580 C   0  0  0  0  0  0  0  0  0  0  0  0
   -0.7540    9.6330   -1.1290 C   0  0  2  0  0  0  0  0  0  0  0  0
   -0.5330    8.1190   -1.2900 C   0  0  0  0  0  0  0  0  0  0  0  0
   -1.6850    7.3640   -1.8670 C   0  0  0  0  0  0  0  0  0  0  0  0
   -2.9450    7.8240   -1.9770 C   0  0  0  0  0  0  0  0  0  0  0  0
   -3.3370    9.1930   -1.4050 C   0  0  1  0  0  0  0  0  0  0  0  0
   -4.6620    9.0610   -0.6100 C   0  0  0  0  0  0  0  0  0  0  0  0
   -5.7800    8.4320   -1.4360 C   0  0  0  0  0  0  0  0  0  0  0  0
   -5.3750    7.0490   -1.9380 C   0  0  2  0  0  0  0  0  0  0  0  0
   -5.2520    6.1690   -0.8160 O   0  0  0  0  0  0  0  0  0  0  0  0
   -4.0470    7.0550   -2.7460 C   0  0  0  0  0  0  0  0  0  0  0  0
   -4.2700    7.7570   -4.1080 C   0  0  0  0  0  0  0  0  0  0  0  0
   -3.6800    5.5820   -3.0720 C   0  0  0  0  0  0  0  0  0  0  0  0
   -2.2060    9.9510   -0.5850 C   0  0  1  0  0  0  0  0  0  0  0  0
   -2.2330    9.4950    0.9060 C   0  0  0  0  0  0  0  0  0  0  0  0
   -2.5190   11.4940   -0.5830 C   0  0  0  0  0  0  0  0  0  0  0  0
   -1.9680   12.3170   -1.7630 C   0  0  0  0  0  0  0  0  0  0  0  0
   -0.4820   12.0210   -1.9910 C   0  0  2  0  0  0  0  0  0  0  0  0
    0.2970   12.4690   -0.7080 C   0  0  0  0  0  0  0  0  0  0  0  0
    0.8359   15.8759   -4.3972 H   0  0  0  0  0  0  0  0  0  0  0  0
    1.4722   14.3245   -5.0415 H   0  0  0  0  0  0  0  0  0  0  0  0
   -0.2963   14.6391   -5.0415 H   0  0  0  0  0  0  0  0  0  0  0  0
   -0.2670   14.7041   -2.5634 H   0  0  0  0  0  0  0  0  0  0  0  0
    2.0174   13.4070   -1.7329 H   0  0  0  0  0  0  0  0  0  0  0  0
    2.6324   14.5750   -2.9981 H   0  0  0  0  0  0  0  0  0  0  0  0
    0.9494   15.3161   -0.5745 H   0  0  0  0  0  0  0  0  0  0  0  0
    2.7416   15.5295   -0.7468 H   0  0  0  0  0  0  0  0  0  0  0  0
    1.7437   16.3605   -2.9409 H   0  0  0  0  0  0  0  0  0  0  0  0
    0.3107   17.7790    0.6417 H   0  0  0  0  0  0  0  0  0  0  0  0
   -1.1378   18.3077   -0.2797 H   0  0  0  0  0  0  0  0  0  0  0  0
   -0.6556   16.5774   -0.2797 H   0  0  0  0  0  0  0  0  0  0  0  0
   -0.3344   19.7350   -1.9010 H   0  0  0  0  0  0  0  0  0  0  0  0
    0.9136   19.2096   -3.0813 H   0  0  0  0  0  0  0  0  0  0  0  0
   -0.7061   18.4330   -3.0813 H   0  0  0  0  0  0  0  0  0  0  0  0
   -0.5337   12.7429   -4.0528 H   0  0  0  0  0  0  0  0  0  0  0  0
    1.5471   11.6202   -4.5500 H   0  0  0  0  0  0  0  0  0  0  0  0
    2.3418   12.2892   -3.1086 H   0  0  0  0  0  0  0  0  0  0  0  0
    1.3907    9.6089   -3.3872 H   0  0  0  0  0  0  0  0  0  0  0  0
    1.8201   10.3489   -1.8472 H   0  0  0  0  0  0  0  0  0  0  0  0
   -1.9941    9.5264   -3.3888 H   0  0  0  0  0  0  0  0  0  0  0  0
   -1.3283   10.9549   -4.2505 H   0  0  0  0  0  0  0  0  0  0  0  0
   -0.4228    9.4036   -4.2505 H   0  0  0  0  0  0  0  0  0  0  0  0
   -0.0448    9.9575   -0.3533 H   0  0  0  0  0  0  0  0  0  0  0  0
    0.3351    7.9704   -1.9491 H   0  0  0  0  0  0  0  0  0  0  0  0
   -0.3878    7.7229   -0.2741 H   0  0  0  0  0  0  0  0  0  0  0  0
   -1.4870    6.3458   -2.2331 H   0  0  0  0  0  0  0  0  0  0  0  0
   -3.4859    9.8540   -2.2715 H   0  0  0  0  0  0  0  0  0  0  0  0
   -4.4812    8.4329    0.2748 H   0  0  0  0  0  0  0  0  0  0  0  0
   -4.9846   10.0742   -0.3284 H   0  0  0  0  0  0  0  0  0  0  0  0
   -6.6805    8.3388   -0.8112 H   0  0  0  0  0  0  0  0  0  0  0  0
   -5.9799    9.0763   -2.3048 H   0  0  0  0  0  0  0  0  0  0  0  0
   -6.1599    6.7055   -2.6279 H   0  0  0  0  0  0  0  0  0  0  0  0
   -4.3920    6.3440   -0.3980 H   0  0  0  0  0  0  0  0  0  0  0  0
   -4.5990    8.7927   -3.9372 H   0  0  0  0  0  0  0  0  0  0  0  0
   -3.3287    7.7604   -4.6772 H   0  0  0  0  0  0  0  0  0  0  0  0
   -5.0407    7.2166   -4.6772 H   0  0  0  0  0  0  0  0  0  0  0  0
   -3.5407    5.0229   -2.1350 H   0  0  0  0  0  0  0  0  0  0  0  0
   -4.4912    5.1226   -3.6560 H   0  0  0  0  0  0  0  0  0  0  0  0
   -2.7481    5.5569   -3.6560 H   0  0  0  0  0  0  0  0  0  0  0  0
   -2.1807   10.3776    1.5604 H   0  0  0  0  0  0  0  0  0  0  0  0
   -3.1652    8.9459    1.1047 H   0  0  0  0  0  0  0  0  0  0  0  0
   -1.3721    8.8398    1.1047 H   0  0  0  0  0  0  0  0  0  0  0  0
   -3.6127   11.6115   -0.5775 H   0  0  0  0  0  0  0  0  0  0  0  0
   -2.0078   11.8898    0.3070 H   0  0  0  0  0  0  0  0  0  0  0  0
   -2.5298   12.0613   -2.6735 H   0  0  0  0  0  0  0  0  0  0  0  0
   -2.0810   13.3858   -1.5285 H   0  0  0  0  0  0  0  0  0  0  0  0
   -0.2570   12.1504    0.1873 H   0  0  0  0  0  0  0  0  0  0  0  0
    1.2953   12.0070   -0.7052 H   0  0  0  0  0  0  0  0  0  0  0  0
    0.3998   13.5642   -0.7052 H   0  0  0  0  0  0  0  0  0  0  0  0
  1  2  1  0
  2  3  1  0
  3  4  1  0
  4  5  1  0
  5  6  1  0
  6  7  1  0
  7  8  1  0
  7  9  1  0
  2 10  1  0
 10 11  1  0
 11 12  1  0
 12 13  1  0
 13 14  1  6
 13 15  1  0
 15 16  1  0
 16 17  1  0
 17 18  2  0
 18 19  1  0
 19 20  1  0
 20 21  1  0
 21 22  1  0
 22 23  1  0
 22 24  1  0
 24 25  1  0
 24 26  1  0
 19 27  1  0
 27 28  1  1
 27 29  1  0
 29 30  1  0
 30 31  1  0
 31 32  1  1
  7  5  1  0
 31 10  1  0
 31 13  1  0
 27 15  1  0
 24 18  1  0
  1 33  1  0
  1 34  1  0
  1 35  1  0
  2 36  1  1
  3 37  1  0
  3 38  1  0
  4 39  1  0
  4 40  1  0
  5 41  1  6
  8 42  1  0
  8 43  1  0
  8 44  1  0
  9 45  1  0
  9 46  1  0
  9 47  1  0
 10 48  1  6
 11 49  1  0
 11 50  1  0
 12 51  1  0
 12 52  1  0
 14 53  1  0
 14 54  1  0
 14 55  1  0
 15 56  1  1
 16 57  1  0
 16 58  1  0
 17 59  1  0
 19 60  1  6
 20 61  1  0
 20 62  1  0
 21 63  1  0
 21 64  1  0
 22 65  1  6
 23 66  1  0
 25 67  1  0
 25 68  1  0
 25 69  1  0
 26 70  1  0
 26 71  1  0
 26 72  1  0
 28 73  1  0
 28 74  1  0
 28 75  1  0
 29 76  1  0
 29 77  1  0
 30 78  1  0
 30 79  1  0
 32 80  1  0
 32 81  1  0
 32 82  1  0
M  END
>  <meeko>  (18) 
{"is_sidechain": [false], "intermolecular_energy": 2.731, "internal_energy": -0.839}

$$$$
