EPH_relaxed_0001_pdb2pqr_Repair_226_r2_0001_out
     RDKit          3D

 82 86  0  0  0  0  0  0  0  0999 V2000
   -1.5950    8.5790   -1.8190 C   0  0  0  0  0  0  0  0  0  0  0  0
   -1.9930    9.1560   -0.4570 C   0  0  2  0  0  0  0  0  0  0  0  0
   -3.4800    9.5600   -0.4100 C   0  0  0  0  0  0  0  0  0  0  0  0
   -4.4360    8.3710   -0.2800 C   0  0  0  0  0  0  0  0  0  0  0  0
   -5.0770    8.0290   -1.5910 C   0  0  2  0  0  0  0  0  0  0  0  0
   -6.3410    8.6640   -1.8240 O   0  0  0  0  0  0  0  0  0  0  0  0
   -6.3620    7.2320   -1.7120 C   0  0  0  0  0  0  0  0  0  0  0  0
   -7.0830    6.7270   -0.5020 C   0  0  0  0  0  0  0  0  0  0  0  0
   -6.6500    6.5300   -3.0030 C   0  0  0  0  0  0  0  0  0  0  0  0
   -1.1160   10.3590   -0.1270 C   0  0  1  0  0  0  0  0  0  0  0  0
   -0.0310   10.0330    0.9340 C   0  0  0  0  0  0  0  0  0  0  0  0
    1.2220   10.8670    0.5620 C   0  0  0  0  0  0  0  0  0  0  0  0
    0.7170   11.8840   -0.4880 C   0  0  1  0  0  0  0  0  0  0  0  0
    0.0510   13.0230    0.3460 C   0  0  0  0  0  0  0  0  0  0  0  0
    1.7880   12.4440   -1.4790 C   0  0  2  0  0  0  0  0  0  0  0  0
    2.9260   13.2480   -0.8240 C   0  0  0  0  0  0  0  0  0  0  0  0
    2.6800   14.7150   -0.7000 C   0  0  0  0  0  0  0  0  0  0  0  0
    1.7240   15.4060   -1.3480 C   0  0  0  0  0  0  0  0  0  0  0  0
    0.8260   14.7220   -2.3880 C   0  0  1  0  0  0  0  0  0  0  0  0
    0.7360   15.6090   -3.6570 C   0  0  0  0  0  0  0  0  0  0  0  0
    0.2870   17.0330   -3.3450 C   0  0  0  0  0  0  0  0  0  0  0  0
    1.2370   17.6990   -2.3530 C   0  0  2  0  0  0  0  0  0  0  0  0
    2.5090   17.8800   -2.9830 O   0  0  0  0  0  0  0  0  0  0  0  0
    1.4150   16.8910   -1.0380 C   0  0  0  0  0  0  0  0  0  0  0  0
    0.1090   16.9520   -0.2080 C   0  0  0  0  0  0  0  0  0  0  0  0
    2.5030   17.5980   -0.1860 C   0  0  0  0  0  0  0  0  0  0  0  0
    1.1820   13.2100   -2.7240 C   0  0  1  0  0  0  0  0  0  0  0  0
    2.2600   13.1540   -3.8490 C   0  0  0  0  0  0  0  0  0  0  0  0
   -0.0980   12.4970   -3.3000 C   0  0  0  0  0  0  0  0  0  0  0  0
   -1.0570   11.8580   -2.2770 C   0  0  0  0  0  0  0  0  0  0  0  0
   -0.2930   10.9780   -1.2830 C   0  0  2  0  0  0  0  0  0  0  0  0
    0.3700    9.8100   -2.0900 C   0  0  0  0  0  0  0  0  0  0  0  0
   -0.9761    7.6818   -1.6704 H   0  0  0  0  0  0  0  0  0  0  0  0
   -2.5008    8.3105   -2.3823 H   0  0  0  0  0  0  0  0  0  0  0  0
   -1.0222    9.3304   -2.3823 H   0  0  0  0  0  0  0  0  0  0  0  0
   -1.8414    8.3671    0.2944 H   0  0  0  0  0  0  0  0  0  0  0  0
   -3.6324   10.2244    0.4533 H   0  0  0  0  0  0  0  0  0  0  0  0
   -3.7095   10.0547   -1.3653 H   0  0  0  0  0  0  0  0  0  0  0  0
   -3.8720    7.4977    0.0796 H   0  0  0  0  0  0  0  0  0  0  0  0
   -5.2309    8.6461    0.4289 H   0  0  0  0  0  0  0  0  0  0  0  0
   -4.0926    7.9188   -2.0694 H   0  0  0  0  0  0  0  0  0  0  0  0
   -6.5728    7.0844    0.4046 H   0  0  0  0  0  0  0  0  0  0  0  0
   -8.1184    7.0983   -0.5105 H   0  0  0  0  0  0  0  0  0  0  0  0
   -7.0879    5.6270   -0.5105 H   0  0  0  0  0  0  0  0  0  0  0  0
   -7.0599    5.5309   -2.7936 H   0  0  0  0  0  0  0  0  0  0  0  0
   -7.3818    7.1126   -3.5819 H   0  0  0  0  0  0  0  0  0  0  0  0
   -5.7199    6.4308   -3.5819 H   0  0  0  0  0  0  0  0  0  0  0  0
   -1.8905   11.0669    0.2033 H   0  0  0  0  0  0  0  0  0  0  0  0
   -0.3867   10.3103    1.9373 H   0  0  0  0  0  0  0  0  0  0  0  0
    0.1994    8.9575    0.9463 H   0  0  0  0  0  0  0  0  0  0  0  0
    1.6189   11.3869    1.4464 H   0  0  0  0  0  0  0  0  0  0  0  0
    2.0400   10.2409    0.1762 H   0  0  0  0  0  0  0  0  0  0  0  0
    0.1743   12.8122    1.4186 H   0  0  0  0  0  0  0  0  0  0  0  0
    0.5300   13.9831    0.1036 H   0  0  0  0  0  0  0  0  0  0  0  0
   -1.0206   13.0764    0.1036 H   0  0  0  0  0  0  0  0  0  0  0  0
    2.2543   11.5258   -1.8655 H   0  0  0  0  0  0  0  0  0  0  0  0
    3.0900   12.8442    0.1860 H   0  0  0  0  0  0  0  0  0  0  0  0
    3.7964   13.1402   -1.4879 H   0  0  0  0  0  0  0  0  0  0  0  0
    3.3360   15.2795   -0.0211 H   0  0  0  0  0  0  0  0  0  0  0  0
   -0.1668   14.6345   -1.9226 H   0  0  0  0  0  0  0  0  0  0  0  0
    1.7279   15.6479   -4.1310 H   0  0  0  0  0  0  0  0  0  0  0  0
   -0.0147   15.1611   -4.3247 H   0  0  0  0  0  0  0  0  0  0  0  0
    0.2711   17.6178   -4.2765 H   0  0  0  0  0  0  0  0  0  0  0  0
   -0.7174   16.9947   -2.8980 H   0  0  0  0  0  0  0  0  0  0  0  0
    0.7934   18.6648   -2.0694 H   0  0  0  0  0  0  0  0  0  0  0  0
    3.1290   18.2010   -2.3070 H   0  0  0  0  0  0  0  0  0  0  0  0
    0.3550   16.9405    0.8641 H   0  0  0  0  0  0  0  0  0  0  0  0
   -0.4359   17.8766   -0.4493 H   0  0  0  0  0  0  0  0  0  0  0  0
   -0.5197   16.0822   -0.4493 H   0  0  0  0  0  0  0  0  0  0  0  0
    2.2827   17.4548    0.8822 H   0  0  0  0  0  0  0  0  0  0  0  0
    3.4880   17.1670   -0.4182 H   0  0  0  0  0  0  0  0  0  0  0  0
    2.5093   18.6732   -0.4182 H   0  0  0  0  0  0  0  0  0  0  0  0
    3.2608   13.1020   -3.3955 H   0  0  0  0  0  0  0  0  0  0  0  0
    2.0933   12.2633   -4.4726 H   0  0  0  0  0  0  0  0  0  0  0  0
    2.1865   14.0572   -4.4726 H   0  0  0  0  0  0  0  0  0  0  0  0
   -0.6688   13.2461   -3.8684 H   0  0  0  0  0  0  0  0  0  0  0  0
    0.2851   11.6575   -3.8988 H   0  0  0  0  0  0  0  0  0  0  0  0
   -1.5776   12.6548   -1.7256 H   0  0  0  0  0  0  0  0  0  0  0  0
   -1.7787   11.2291   -2.8188 H   0  0  0  0  0  0  0  0  0  0  0  0
    0.7888    9.0721   -1.3899 H   0  0  0  0  0  0  0  0  0  0  0  0
   -0.3878    9.3256   -2.7233 H   0  0  0  0  0  0  0  0  0  0  0  0
    1.1744   10.2123   -2.7233 H   0  0  0  0  0  0  0  0  0  0  0  0
  1  2  1  0
  2  3  1  0
  3  4  1  0
  4  5  1  0
  5  6  1  0
  6  7  1  0
  7  8  1  0
  7  9  1  0
  2 10  1  0
 10 11  1  0
 11 12  1  0
 12 13  1  0
 13 14  1  1
 13 15  1  0
 15 16  1  0
 16 17  1  0
 17 18  2  0
 18 19  1  0
 19 20  1  0
 20 21  1  0
 21 22  1  0
 22 23  1  0
 22 24  1  0
 24 25  1  0
 24 26  1  0
 19 27  1  0
 27 28  1  6
 27 29  1  0
 29 30  1  0
 30 31  1  0
 31 32  1  6
  7  5  1  0
 31 10  1  0
 31 13  1  0
 27 15  1  0
 24 18  1  0
  1 33  1  0
  1 34  1  0
  1 35  1  0
  2 36  1  1
  3 37  1  0
  3 38  1  0
  4 39  1  0
  4 40  1  0
  5 41  1  6
  8 42  1  0
  8 43  1  0
  8 44  1  0
  9 45  1  0
  9 46  1  0
  9 47  1  0
 10 48  1  1
 11 49  1  0
 11 50  1  0
 12 51  1  0
 12 52  1  0
 14 53  1  0
 14 54  1  0
 14 55  1  0
 15 56  1  6
 16 57  1  0
 16 58  1  0
 17 59  1  0
 19 60  1  1
 20 61  1  0
 20 62  1  0
 21 63  1  0
 21 64  1  0
 22 65  1  1
 23 66  1  0
 25 67  1  0
 25 68  1  0
 25 69  1  0
 26 70  1  0
 26 71  1  0
 26 72  1  0
 28 73  1  0
 28 74  1  0
 28 75  1  0
 29 76  1  0
 29 77  1  0
 30 78  1  0
 30 79  1  0
 32 80  1  0
 32 81  1  0
 32 82  1  0
M  END
>  <meeko>  (1) 
{"is_sidechain": [false], "intermolecular_energy": 2.731, "internal_energy": -0.839}

$$$$
EPH_relaxed_0001_pdb2pqr_Repair_226_r2_0001_out
     RDKit          3D

 82 86  0  0  0  0  0  0  0  0999 V2000
    4.1080   17.6310    0.1410 C   0  0  0  0  0  0  0  0  0  0  0  0
    2.7040   18.2110   -0.0590 C   0  0  2  0  0  0  0  0  0  0  0  0
    2.3190   19.1990    1.0600 C   0  0  0  0  0  0  0  0  0  0  0  0
    3.5120   19.9540    1.6520 C   0  0  0  0  0  0  0  0  0  0  0  0
    4.0280   19.2910    2.8930 C   0  0  2  0  0  0  0  0  0  0  0  0
    4.4170   20.1940    3.9370 O   0  0  0  0  0  0  0  0  0  0  0  0
    5.4660   19.3990    3.3630 C   0  0  0  0  0  0  0  0  0  0  0  0
    6.4800   20.1900    2.5970 C   0  0  0  0  0  0  0  0  0  0  0  0
    5.9980   18.3470    4.2860 C   0  0  0  0  0  0  0  0  0  0  0  0
    1.6820   17.0830   -0.1330 C   0  0  1  0  0  0  0  0  0  0  0  0
    0.2740   17.5800   -0.5560 C   0  0  0  0  0  0  0  0  0  0  0  0
   -0.3580   16.4550   -1.4160 C   0  0  0  0  0  0  0  0  0  0  0  0
    0.5560   15.2290   -1.1860 C   0  0  1  0  0  0  0  0  0  0  0  0
    0.0840   14.6260    0.1740 C   0  0  0  0  0  0  0  0  0  0  0  0
    0.5670   14.1530   -2.3210 C   0  0  2  0  0  0  0  0  0  0  0  0
   -0.7830   13.4620   -2.5780 C   0  0  0  0  0  0  0  0  0  0  0  0
   -1.0240   12.2180   -1.7870 C   0  0  0  0  0  0  0  0  0  0  0  0
   -0.0850   11.5210   -1.1210 C   0  0  0  0  0  0  0  0  0  0  0  0
    1.3950   11.9160   -1.2030 C   0  0  1  0  0  0  0  0  0  0  0  0
    2.2560   10.6500   -1.4560 C   0  0  0  0  0  0  0  0  0  0  0  0
    2.0000    9.5530   -0.4260 C   0  0  0  0  0  0  0  0  0  0  0  0
    0.5280    9.1470   -0.4160 C   0  0  2  0  0  0  0  0  0  0  0  0
    0.2160    8.5170   -1.6610 O   0  0  0  0  0  0  0  0  0  0  0  0
   -0.4360   10.3430   -0.1790 C   0  0  0  0  0  0  0  0  0  0  0  0
   -0.3050   10.8360    1.2840 C   0  0  0  0  0  0  0  0  0  0  0  0
   -1.8900    9.8220   -0.3330 C   0  0  0  0  0  0  0  0  0  0  0  0
    1.7430   13.1000   -2.2040 C   0  0  1  0  0  0  0  0  0  0  0  0
    1.9770   12.5330   -3.6380 C   0  0  0  0  0  0  0  0  0  0  0  0
    3.1000   13.7650   -1.7630 C   0  0  0  0  0  0  0  0  0  0  0  0
    3.0120   14.9030   -0.7280 C   0  0  0  0  0  0  0  0  0  0  0  0
    1.9590   15.9360   -1.1380 C   0  0  2  0  0  0  0  0  0  0  0  0
    2.4180   16.5760   -2.4920 C   0  0  0  0  0  0  0  0  0  0  0  0
    4.3189   17.5439    1.2171 H   0  0  0  0  0  0  0  0  0  0  0  0
    4.1636   16.6363   -0.3252 H   0  0  0  0  0  0  0  0  0  0  0  0
    4.8495   18.2965   -0.3252 H   0  0  0  0  0  0  0  0  0  0  0  0
    2.7087   18.7710   -1.0058 H   0  0  0  0  0  0  0  0  0  0  0  0
    1.6133   19.9344    0.6463 H   0  0  0  0  0  0  0  0  0  0  0  0
    1.8778   18.6059    1.8746 H   0  0  0  0  0  0  0  0  0  0  0  0
    4.3184   19.9883    0.9047 H   0  0  0  0  0  0  0  0  0  0  0  0
    3.1779   20.9675    1.9187 H   0  0  0  0  0  0  0  0  0  0  0  0
    3.3664   18.4266    2.7344 H   0  0  0  0  0  0  0  0  0  0  0  0
    7.1468   20.7102    3.3004 H   0  0  0  0  0  0  0  0  0  0  0  0
    7.0716   19.5124    1.9639 H   0  0  0  0  0  0  0  0  0  0  0  0
    5.9667   20.9287    1.9639 H   0  0  0  0  0  0  0  0  0  0  0  0
    5.8398   18.6599    5.3286 H   0  0  0  0  0  0  0  0  0  0  0  0
    5.4711   17.3988    4.1038 H   0  0  0  0  0  0  0  0  0  0  0  0
    7.0740   18.2094    4.1038 H   0  0  0  0  0  0  0  0  0  0  0  0
    1.7504   16.7045    0.8976 H   0  0  0  0  0  0  0  0  0  0  0  0
   -0.3442   17.7690    0.3340 H   0  0  0  0  0  0  0  0  0  0  0  0
    0.3410   18.5202   -1.1231 H   0  0  0  0  0  0  0  0  0  0  0  0
   -1.3846   16.2420   -1.0833 H   0  0  0  0  0  0  0  0  0  0  0  0
   -0.4270   16.7307   -2.4786 H   0  0  0  0  0  0  0  0  0  0  0  0
    0.5301   15.1959    1.0023 H   0  0  0  0  0  0  0  0  0  0  0  0
   -1.0126   14.6821    0.2391 H   0  0  0  0  0  0  0  0  0  0  0  0
    0.4019   13.5749    0.2391 H   0  0  0  0  0  0  0  0  0  0  0  0
    0.7679   14.7576   -3.2177 H   0  0  0  0  0  0  0  0  0  0  0  0
   -1.5826   14.1781   -2.3373 H   0  0  0  0  0  0  0  0  0  0  0  0
   -0.7708   13.1536   -3.6338 H   0  0  0  0  0  0  0  0  0  0  0  0
   -2.0561   11.8397   -1.7454 H   0  0  0  0  0  0  0  0  0  0  0  0
    1.6477   12.3503   -0.2245 H   0  0  0  0  0  0  0  0  0  0  0  0
    2.0199   10.2570   -2.4559 H   0  0  0  0  0  0  0  0  0  0  0  0
    3.3131   10.9434   -1.3757 H   0  0  0  0  0  0  0  0  0  0  0  0
    2.6140    8.6749   -0.6750 H   0  0  0  0  0  0  0  0  0  0  0  0
    2.2650    9.9375    0.5699 H   0  0  0  0  0  0  0  0  0  0  0  0
    0.3820    8.4554    0.4269 H   0  0  0  0  0  0  0  0  0  0  0  0
    0.6530    9.0240   -2.3660 H   0  0  0  0  0  0  0  0  0  0  0  0
   -0.5255   10.0062    1.9717 H   0  0  0  0  0  0  0  0  0  0  0  0
    0.7198   11.1952    1.4595 H   0  0  0  0  0  0  0  0  0  0  0  0
   -1.0163   11.6565    1.4595 H   0  0  0  0  0  0  0  0  0  0  0  0
   -2.3303    9.6642    0.6626 H   0  0  0  0  0  0  0  0  0  0  0  0
   -2.4880   10.5618   -0.8854 H   0  0  0  0  0  0  0  0  0  0  0  0
   -1.8821    8.8708   -0.8854 H   0  0  0  0  0  0  0  0  0  0  0  0
    2.3958   11.5183   -3.5673 H   0  0  0  0  0  0  0  0  0  0  0  0
    1.0199   12.4978   -4.1791 H   0  0  0  0  0  0  0  0  0  0  0  0
    2.6804   13.1830   -4.1791 H   0  0  0  0  0  0  0  0  0  0  0  0
    3.7344   12.9746   -1.3354 H   0  0  0  0  0  0  0  0  0  0  0  0
    3.4997   14.2347   -2.6739 H   0  0  0  0  0  0  0  0  0  0  0  0
    2.7392   14.4797    0.2500 H   0  0  0  0  0  0  0  0  0  0  0  0
    3.9904   15.4026   -0.6718 H   0  0  0  0  0  0  0  0  0  0  0  0
    3.0479   17.4543   -2.2875 H   0  0  0  0  0  0  0  0  0  0  0  0
    2.9941   15.8381   -3.0697 H   0  0  0  0  0  0  0  0  0  0  0  0
    1.5344   16.8850   -3.0697 H   0  0  0  0  0  0  0  0  0  0  0  0
  1  2  1  0
  2  3  1  0
  3  4  1  0
  4  5  1  0
  5  6  1  0
  6  7  1  0
  7  8  1  0
  7  9  1  0
  2 10  1  0
 10 11  1  0
 11 12  1  0
 12 13  1  0
 13 14  1  1
 13 15  1  0
 15 16  1  0
 16 17  1  0
 17 18  2  0
 18 19  1  0
 19 20  1  0
 20 21  1  0
 21 22  1  0
 22 23  1  0
 22 24  1  0
 24 25  1  0
 24 26  1  0
 19 27  1  0
 27 28  1  6
 27 29  1  0
 29 30  1  0
 30 31  1  0
 31 32  1  6
  7  5  1  0
 31 10  1  0
 31 13  1  0
 27 15  1  0
 24 18  1  0
  1 33  1  0
  1 34  1  0
  1 35  1  0
  2 36  1  6
  3 37  1  0
  3 38  1  0
  4 39  1  0
  4 40  1  0
  5 41  1  1
  8 42  1  0
  8 43  1  0
  8 44  1  0
  9 45  1  0
  9 46  1  0
  9 47  1  0
 10 48  1  1
 11 49  1  0
 11 50  1  0
 12 51  1  0
 12 52  1  0
 14 53  1  0
 14 54  1  0
 14 55  1  0
 15 56  1  6
 16 57  1  0
 16 58  1  0
 17 59  1  0
 19 60  1  1
 20 61  1  0
 20 62  1  0
 21 63  1  0
 21 64  1  0
 22 65  1  1
 23 66  1  0
 25 67  1  0
 25 68  1  0
 25 69  1  0
 26 70  1  0
 26 71  1  0
 26 72  1  0
 28 73  1  0
 28 74  1  0
 28 75  1  0
 29 76  1  0
 29 77  1  0
 30 78  1  0
 30 79  1  0
 32 80  1  0
 32 81  1  0
 32 82  1  0
M  END
>  <meeko>  (2) 
{"is_sidechain": [false], "intermolecular_energy": 2.731, "internal_energy": -0.839}

$$$$
EPH_relaxed_0001_pdb2pqr_Repair_226_r2_0001_out
     RDKit          3D

 82 86  0  0  0  0  0  0  0  0999 V2000
    0.4040   18.4720   -0.0110 C   0  0  0  0  0  0  0  0  0  0  0  0
    1.4920   17.4150   -0.2230 C   0  0  2  0  0  0  0  0  0  0  0  0
    2.7120   17.9810   -0.9770 C   0  0  0  0  0  0  0  0  0  0  0  0
    3.9430   18.1860   -0.0900 C   0  0  0  0  0  0  0  0  0  0  0  0
    3.5660   18.6520    1.2830 C   0  0  2  0  0  0  0  0  0  0  0  0
    3.8110   20.0420    1.5320 O   0  0  0  0  0  0  0  0  0  0  0  0
    4.5760   19.1130    2.3170 C   0  0  0  0  0  0  0  0  0  0  0  0
    6.0430   19.1300    2.0220 C   0  0  0  0  0  0  0  0  0  0  0  0
    4.1860   19.0820    3.7620 C   0  0  0  0  0  0  0  0  0  0  0  0
    0.9180   16.2230   -0.9800 C   0  0  1  0  0  0  0  0  0  0  0  0
    0.7620   16.5000   -2.5000 C   0  0  0  0  0  0  0  0  0  0  0  0
    1.0530   15.1640   -3.2300 C   0  0  0  0  0  0  0  0  0  0  0  0
    1.0400   14.0970   -2.1110 C   0  0  1  0  0  0  0  0  0  0  0  0
   -0.4710   13.7830   -1.8740 C   0  0  0  0  0  0  0  0  0  0  0  0
    1.8630   12.7960   -2.3860 C   0  0  2  0  0  0  0  0  0  0  0  0
    1.3820   11.9610   -3.5860 C   0  0  0  0  0  0  0  0  0  0  0  0
    0.3660   10.9150   -3.2680 C   0  0  0  0  0  0  0  0  0  0  0  0
    0.0690   10.4620   -2.0360 C   0  0  0  0  0  0  0  0  0  0  0  0
    0.8540   10.9420   -0.8090 C   0  0  1  0  0  0  0  0  0  0  0  0
    1.2370    9.7230    0.0700 C   0  0  0  0  0  0  0  0  0  0  0  0
    0.0280    8.8720    0.4480 C   0  0  0  0  0  0  0  0  0  0  0  0
   -0.6930    8.3650   -0.7990 C   0  0  2  0  0  0  0  0  0  0  0  0
    0.1630    7.4460   -1.4850 O   0  0  0  0  0  0  0  0  0  0  0  0
   -1.1180    9.5050   -1.7660 C   0  0  0  0  0  0  0  0  0  0  0  0
   -2.2690   10.3240   -1.1310 C   0  0  0  0  0  0  0  0  0  0  0  0
   -1.7060    8.8500   -3.0450 C   0  0  0  0  0  0  0  0  0  0  0  0
    2.0930   11.8920   -1.1080 C   0  0  1  0  0  0  0  0  0  0  0  0
    3.3650   11.0350   -1.3920 C   0  0  0  0  0  0  0  0  0  0  0  0
    2.4090   12.7430    0.1780 C   0  0  0  0  0  0  0  0  0  0  0  0
    1.6510   14.0760    0.3330 C   0  0  0  0  0  0  0  0  0  0  0  0
    1.7300   14.9040   -0.9520 C   0  0  2  0  0  0  0  0  0  0  0  0
    3.2370   15.2540   -1.2040 C   0  0  0  0  0  0  0  0  0  0  0  0
    0.2465   18.6250    1.0669 H   0  0  0  0  0  0  0  0  0  0  0  0
    0.7179   19.4192   -0.4738 H   0  0  0  0  0  0  0  0  0  0  0  0
   -0.5338   18.1309   -0.4738 H   0  0  0  0  0  0  0  0  0  0  0  0
    1.8385   17.0925    0.7699 H   0  0  0  0  0  0  0  0  0  0  0  0
    2.9774   17.2811   -1.7830 H   0  0  0  0  0  0  0  0  0  0  0  0
    2.4227   18.9711   -1.3592 H   0  0  0  0  0  0  0  0  0  0  0  0
    4.4848   17.2323   -0.0064 H   0  0  0  0  0  0  0  0  0  0  0  0
    4.5740   18.9590   -0.5530 H   0  0  0  0  0  0  0  0  0  0  0  0
    2.7428   17.9239    1.3293 H   0  0  0  0  0  0  0  0  0  0  0  0
    6.6069   19.1365    2.9665 H   0  0  0  0  0  0  0  0  0  0  0  0
    6.3106   18.2349    1.4413 H   0  0  0  0  0  0  0  0  0  0  0  0
    6.2898   20.0311    1.4413 H   0  0  0  0  0  0  0  0  0  0  0  0
    5.0884   19.1537    4.3870 H   0  0  0  0  0  0  0  0  0  0  0  0
    3.5204   19.9301    3.9804 H   0  0  0  0  0  0  0  0  0  0  0  0
    3.6627   18.1394    3.9804 H   0  0  0  0  0  0  0  0  0  0  0  0
   -0.0270   16.0943   -0.4319 H   0  0  0  0  0  0  0  0  0  0  0  0
   -0.2616   16.8371   -2.7205 H   0  0  0  0  0  0  0  0  0  0  0  0
    1.4530   17.2895   -2.8306 H   0  0  0  0  0  0  0  0  0  0  0  0
    0.2742   14.9523   -3.9775 H   0  0  0  0  0  0  0  0  0  0  0  0
    2.0086   15.1858   -3.7745 H   0  0  0  0  0  0  0  0  0  0  0  0
   -0.6717   13.7413   -0.7933 H   0  0  0  0  0  0  0  0  0  0  0  0
   -1.0856   14.5726   -2.3309 H   0  0  0  0  0  0  0  0  0  0  0  0
   -0.7202   12.8139   -2.3309 H   0  0  0  0  0  0  0  0  0  0  0  0
    2.8462   13.1958   -2.6750 H   0  0  0  0  0  0  0  0  0  0  0  0
    0.9429   12.6482   -4.3242 H   0  0  0  0  0  0  0  0  0  0  0  0
    2.2669   11.4231   -3.9570 H   0  0  0  0  0  0  0  0  0  0  0  0
   -0.1869   10.4772   -4.1122 H   0  0  0  0  0  0  0  0  0  0  0  0
    0.1744   11.6042   -0.2525 H   0  0  0  0  0  0  0  0  0  0  0  0
    1.9492    9.0964   -0.4869 H   0  0  0  0  0  0  0  0  0  0  0  0
    1.6789   10.1079    1.0009 H   0  0  0  0  0  0  0  0  0  0  0  0
    0.3657    8.0112    1.0438 H   0  0  0  0  0  0  0  0  0  0  0  0
   -0.6700    9.4919    1.0298 H   0  0  0  0  0  0  0  0  0  0  0  0
   -1.6193    7.8729   -0.4677 H   0  0  0  0  0  0  0  0  0  0  0  0
   -0.3530    6.6420   -1.6660 H   0  0  0  0  0  0  0  0  0  0  0  0
   -2.1950   10.2714   -0.0348 H   0  0  0  0  0  0  0  0  0  0  0  0
   -2.1940   11.3729   -1.4536 H   0  0  0  0  0  0  0  0  0  0  0  0
   -3.2354    9.9094   -1.4536 H   0  0  0  0  0  0  0  0  0  0  0  0
   -2.4156    8.0596   -2.7591 H   0  0  0  0  0  0  0  0  0  0  0  0
   -2.2279    9.6132   -3.6410 H   0  0  0  0  0  0  0  0  0  0  0  0
   -0.8912    8.4132   -3.6410 H   0  0  0  0  0  0  0  0  0  0  0  0
    3.8206   10.7280   -0.4390 H   0  0  0  0  0  0  0  0  0  0  0  0
    3.0839   10.1414   -1.9686 H   0  0  0  0  0  0  0  0  0  0  0  0
    4.0876   11.6312   -1.9686 H   0  0  0  0  0  0  0  0  0  0  0  0
    2.1724   12.1218    1.0545 H   0  0  0  0  0  0  0  0  0  0  0  0
    3.4684   13.0237    0.0842 H   0  0  0  0  0  0  0  0  0  0  0  0
    0.5957   13.8654    0.5610 H   0  0  0  0  0  0  0  0  0  0  0  0
    2.1142   14.6500    1.1491 H   0  0  0  0  0  0  0  0  0  0  0  0
    3.7519   15.3736   -0.2393 H   0  0  0  0  0  0  0  0  0  0  0  0
    3.7115   14.4422   -1.7747 H   0  0  0  0  0  0  0  0  0  0  0  0
    3.3051   16.1919   -1.7747 H   0  0  0  0  0  0  0  0  0  0  0  0
  1  2  1  0
  2  3  1  0
  3  4  1  0
  4  5  1  0
  5  6  1  0
  6  7  1  0
  7  8  1  0
  7  9  1  0
  2 10  1  0
 10 11  1  0
 11 12  1  0
 12 13  1  0
 13 14  1  1
 13 15  1  0
 15 16  1  0
 16 17  1  0
 17 18  2  0
 18 19  1  0
 19 20  1  0
 20 21  1  0
 21 22  1  0
 22 23  1  0
 22 24  1  0
 24 25  1  0
 24 26  1  0
 19 27  1  0
 27 28  1  6
 27 29  1  0
 29 30  1  0
 30 31  1  0
 31 32  1  6
  7  5  1  0
 31 10  1  0
 31 13  1  0
 27 15  1  0
 24 18  1  0
  1 33  1  0
  1 34  1  0
  1 35  1  0
  2 36  1  1
  3 37  1  0
  3 38  1  0
  4 39  1  0
  4 40  1  0
  5 41  1  1
  8 42  1  0
  8 43  1  0
  8 44  1  0
  9 45  1  0
  9 46  1  0
  9 47  1  0
 10 48  1  1
 11 49  1  0
 11 50  1  0
 12 51  1  0
 12 52  1  0
 14 53  1  0
 14 54  1  0
 14 55  1  0
 15 56  1  6
 16 57  1  0
 16 58  1  0
 17 59  1  0
 19 60  1  1
 20 61  1  0
 20 62  1  0
 21 63  1  0
 21 64  1  0
 22 65  1  1
 23 66  1  0
 25 67  1  0
 25 68  1  0
 25 69  1  0
 26 70  1  0
 26 71  1  0
 26 72  1  0
 28 73  1  0
 28 74  1  0
 28 75  1  0
 29 76  1  0
 29 77  1  0
 30 78  1  0
 30 79  1  0
 32 80  1  0
 32 81  1  0
 32 82  1  0
M  END
>  <meeko>  (3) 
{"is_sidechain": [false], "intermolecular_energy": 2.731, "internal_energy": -0.839}

$$$$
EPH_relaxed_0001_pdb2pqr_Repair_226_r2_0001_out
     RDKit          3D

 82 86  0  0  0  0  0  0  0  0999 V2000
    2.4460   18.0560   -2.6220 C   0  0  0  0  0  0  0  0  0  0  0  0
    1.1080   17.7020   -1.9680 C   0  0  2  0  0  0  0  0  0  0  0  0
    1.1750   17.7800   -0.4300 C   0  0  0  0  0  0  0  0  0  0  0  0
    0.8040   19.1540    0.1330 C   0  0  0  0  0  0  0  0  0  0  0  0
   -0.6490   19.2330    0.4920 C   0  0  2  0  0  0  0  0  0  0  0  0
   -1.4860   18.2910   -0.1910 O   0  0  0  0  0  0  0  0  0  0  0  0
   -1.7280   19.6780   -0.4770 C   0  0  0  0  0  0  0  0  0  0  0  0
   -1.3980   20.0760   -1.8820 C   0  0  0  0  0  0  0  0  0  0  0  0
   -3.0200   20.1920    0.0770 C   0  0  0  0  0  0  0  0  0  0  0  0
    0.6710   16.3070   -2.4010 C   0  0  1  0  0  0  0  0  0  0  0  0
    0.8000   16.0880   -3.9320 C   0  0  0  0  0  0  0  0  0  0  0  0
    1.2070   14.6070   -4.1390 C   0  0  0  0  0  0  0  0  0  0  0  0
    0.9770   13.9420   -2.7620 C   0  0  1  0  0  0  0  0  0  0  0  0
   -0.5540   13.6450   -2.7100 C   0  0  0  0  0  0  0  0  0  0  0  0
    1.8240   12.6620   -2.4620 C   0  0  2  0  0  0  0  0  0  0  0  0
    1.5640   11.4730   -3.4030 C   0  0  0  0  0  0  0  0  0  0  0  0
    0.4960   10.5290   -2.9570 C   0  0  0  0  0  0  0  0  0  0  0  0
   -0.0280   10.4690   -1.7190 C   0  0  0  0  0  0  0  0  0  0  0  0
    0.5240   11.3450   -0.5870 C   0  0  1  0  0  0  0  0  0  0  0  0
    0.7260   10.4810    0.6860 C   0  0  0  0  0  0  0  0  0  0  0  0
   -0.5400    9.7330    1.0920 C   0  0  0  0  0  0  0  0  0  0  0  0
   -1.0240    8.8280   -0.0390 C   0  0  2  0  0  0  0  0  0  0  0  0
   -0.0660    7.7840   -0.2360 O   0  0  0  0  0  0  0  0  0  0  0  0
   -1.2540    9.5870   -1.3750 C   0  0  0  0  0  0  0  0  0  0  0  0
   -2.4930   10.5070   -1.2460 C   0  0  0  0  0  0  0  0  0  0  0  0
   -1.6030    8.5390   -2.4660 C   0  0  0  0  0  0  0  0  0  0  0  0
    1.8060   12.2140   -0.9450 C   0  0  1  0  0  0  0  0  0  0  0  0
    3.0990   11.3740   -0.7130 C   0  0  0  0  0  0  0  0  0  0  0  0
    1.8890   13.4380    0.0420 C   0  0  0  0  0  0  0  0  0  0  0  0
    1.1290   14.7140   -0.3680 C   0  0  0  0  0  0  0  0  0  0  0  0
    1.4510   15.1030   -1.8140 C   0  0  2  0  0  0  0  0  0  0  0  0
    2.9810   15.4300   -1.8920 C   0  0  0  0  0  0  0  0  0  0  0  0
    3.1948   18.2541   -1.8410 H   0  0  0  0  0  0  0  0  0  0  0  0
    2.7820   17.2159   -3.2475 H   0  0  0  0  0  0  0  0  0  0  0  0
    2.3226   18.9524   -3.2475 H   0  0  0  0  0  0  0  0  0  0  0  0
    0.3686   18.4440   -2.3038 H   0  0  0  0  0  0  0  0  0  0  0  0
    0.4807   17.0352   -0.0139 H   0  0  0  0  0  0  0  0  0  0  0  0
    2.2192   17.5864   -0.1434 H   0  0  0  0  0  0  0  0  0  0  0  0
    1.4047   19.3436    1.0348 H   0  0  0  0  0  0  0  0  0  0  0  0
    1.0068   19.9079   -0.6420 H   0  0  0  0  0  0  0  0  0  0  0  0
   -0.4026   19.5481    1.5167 H   0  0  0  0  0  0  0  0  0  0  0  0
   -0.6959   20.9227   -1.8680 H   0  0  0  0  0  0  0  0  0  0  0  0
   -0.9364   19.2256   -2.4052 H   0  0  0  0  0  0  0  0  0  0  0  0
   -2.3192   20.3721   -2.4052 H   0  0  0  0  0  0  0  0  0  0  0  0
   -2.9798   20.1760    1.1762 H   0  0  0  0  0  0  0  0  0  0  0  0
   -3.1828   21.2234   -0.2690 H   0  0  0  0  0  0  0  0  0  0  0  0
   -3.8468   19.5543   -0.2690 H   0  0  0  0  0  0  0  0  0  0  0  0
   -0.3603   16.3104   -2.0185 H   0  0  0  0  0  0  0  0  0  0  0  0
   -0.1622   16.2890   -4.4258 H   0  0  0  0  0  0  0  0  0  0  0  0
    1.5478   16.7676   -4.3666 H   0  0  0  0  0  0  0  0  0  0  0  0
    0.5774   14.1353   -4.9079 H   0  0  0  0  0  0  0  0  0  0  0  0
    2.2469   14.5047   -4.4827 H   0  0  0  0  0  0  0  0  0  0  0  0
   -0.8798   13.5818   -1.6613 H   0  0  0  0  0  0  0  0  0  0  0  0
   -1.1018   14.4536   -3.2160 H   0  0  0  0  0  0  0  0  0  0  0  0
   -0.7597   12.6902   -3.2160 H   0  0  0  0  0  0  0  0  0  0  0  0
    2.8477   12.9989   -2.6825 H   0  0  0  0  0  0  0  0  0  0  0  0
    1.2748   11.8740   -4.3856 H   0  0  0  0  0  0  0  0  0  0  0  0
    2.4968   10.8904   -3.4226 H   0  0  0  0  0  0  0  0  0  0  0  0
    0.1045    9.8228   -3.7040 H   0  0  0  0  0  0  0  0  0  0  0  0
   -0.2394   12.1141   -0.3981 H   0  0  0  0  0  0  0  0  0  0  0  0
    1.5221    9.7472    0.4915 H   0  0  0  0  0  0  0  0  0  0  0  0
    0.9926   11.1585    1.5106 H   0  0  0  0  0  0  0  0  0  0  0  0
   -0.3265    9.1184    1.9789 H   0  0  0  0  0  0  0  0  0  0  0  0
   -1.3269   10.4686    1.3150 H   0  0  0  0  0  0  0  0  0  0  0  0
   -2.0003    8.4190    0.2603 H   0  0  0  0  0  0  0  0  0  0  0  0
    0.4070    7.9720   -1.0640 H   0  0  0  0  0  0  0  0  0  0  0  0
   -2.7170   10.6733   -0.1820 H   0  0  0  0  0  0  0  0  0  0  0  0
   -2.2856   11.4717   -1.7322 H   0  0  0  0  0  0  0  0  0  0  0  0
   -3.3565   10.0295   -1.7322 H   0  0  0  0  0  0  0  0  0  0  0  0
   -1.9157    7.6000   -1.9858 H   0  0  0  0  0  0  0  0  0  0  0  0
   -2.4224    8.9210   -3.0926 H   0  0  0  0  0  0  0  0  0  0  0  0
   -0.7182    8.3534   -3.0926 H   0  0  0  0  0  0  0  0  0  0  0  0
    3.2737   11.2605    0.3671 H   0  0  0  0  0  0  0  0  0  0  0  0
    2.9785   10.3813   -1.1712 H   0  0  0  0  0  0  0  0  0  0  0  0
    3.9571   11.8876   -1.1712 H   0  0  0  0  0  0  0  0  0  0  0  0
    1.4893   13.1102    1.0130 H   0  0  0  0  0  0  0  0  0  0  0  0
    2.9504   13.7266    0.0540 H   0  0  0  0  0  0  0  0  0  0  0  0
    0.0477   14.5341   -0.2760 H   0  0  0  0  0  0  0  0  0  0  0  0
    1.4402   15.5356    0.2939 H   0  0  0  0  0  0  0  0  0  0  0  0
    3.3896   15.5173   -0.8745 H   0  0  0  0  0  0  0  0  0  0  0  0
    3.5016   14.6228   -2.4282 H   0  0  0  0  0  0  0  0  0  0  0  0
    3.1262   16.3795   -2.4282 H   0  0  0  0  0  0  0  0  0  0  0  0
  1  2  1  0
  2  3  1  0
  3  4  1  0
  4  5  1  0
  5  6  1  0
  6  7  1  0
  7  8  1  0
  7  9  1  0
  2 10  1  0
 10 11  1  0
 11 12  1  0
 12 13  1  0
 13 14  1  1
 13 15  1  0
 15 16  1  0
 16 17  1  0
 17 18  2  0
 18 19  1  0
 19 20  1  0
 20 21  1  0
 21 22  1  0
 22 23  1  0
 22 24  1  0
 24 25  1  0
 24 26  1  0
 19 27  1  0
 27 28  1  6
 27 29  1  0
 29 30  1  0
 30 31  1  0
 31 32  1  1
  7  5  1  0
 31 10  1  0
 31 13  1  0
 27 15  1  0
 24 18  1  0
  1 33  1  0
  1 34  1  0
  1 35  1  0
  2 36  1  6
  3 37  1  0
  3 38  1  0
  4 39  1  0
  4 40  1  0
  5 41  1  1
  8 42  1  0
  8 43  1  0
  8 44  1  0
  9 45  1  0
  9 46  1  0
  9 47  1  0
 10 48  1  1
 11 49  1  0
 11 50  1  0
 12 51  1  0
 12 52  1  0
 14 53  1  0
 14 54  1  0
 14 55  1  0
 15 56  1  6
 16 57  1  0
 16 58  1  0
 17 59  1  0
 19 60  1  1
 20 61  1  0
 20 62  1  0
 21 63  1  0
 21 64  1  0
 22 65  1  1
 23 66  1  0
 25 67  1  0
 25 68  1  0
 25 69  1  0
 26 70  1  0
 26 71  1  0
 26 72  1  0
 28 73  1  0
 28 74  1  0
 28 75  1  0
 29 76  1  0
 29 77  1  0
 30 78  1  0
 30 79  1  0
 32 80  1  0
 32 81  1  0
 32 82  1  0
M  END
>  <meeko>  (4) 
{"is_sidechain": [false], "intermolecular_energy": 2.731, "internal_energy": -0.839}

$$$$
EPH_relaxed_0001_pdb2pqr_Repair_226_r2_0001_out
     RDKit          3D

 82 86  0  0  0  0  0  0  0  0999 V2000
   -5.0920    5.9620   -1.7530 C   0  0  0  0  0  0  0  0  0  0  0  0
   -5.4270    7.4560   -1.7980 C   0  0  2  0  0  0  0  0  0  0  0  0
   -5.2180    8.1390   -0.4320 C   0  0  0  0  0  0  0  0  0  0  0  0
   -4.1480    9.2350   -0.4490 C   0  0  0  0  0  0  0  0  0  0  0  0
   -2.8030    8.6900   -0.8220 C   0  0  2  0  0  0  0  0  0  0  0  0
   -1.7560    8.9880    0.1110 O   0  0  0  0  0  0  0  0  0  0  0  0
   -1.6210    9.5640   -1.1980 C   0  0  0  0  0  0  0  0  0  0  0  0
   -1.7310   11.0570   -1.2210 C   0  0  0  0  0  0  0  0  0  0  0  0
   -0.5160    8.9640   -2.0100 C   0  0  0  0  0  0  0  0  0  0  0  0
   -6.8650    7.6520   -2.2630 C   0  0  1  0  0  0  0  0  0  0  0  0
   -7.1580    6.9430   -3.6130 C   0  0  0  0  0  0  0  0  0  0  0  0
   -8.6240    6.4430   -3.5460 C   0  0  0  0  0  0  0  0  0  0  0  0
   -9.2250    7.1590   -2.3140 C   0  0  1  0  0  0  0  0  0  0  0  0
   -9.6030    8.5850   -2.8240 C   0  0  0  0  0  0  0  0  0  0  0  0
  -10.4380    6.4520   -1.6270 C   0  0  2  0  0  0  0  0  0  0  0  0
  -11.6890    6.2980   -2.5090 C   0  0  0  0  0  0  0  0  0  0  0  0
  -12.6650    7.4250   -2.4350 C   0  0  0  0  0  0  0  0  0  0  0  0
  -12.6870    8.3790   -1.4850 C   0  0  0  0  0  0  0  0  0  0  0  0
  -11.7220    8.3270   -0.2940 C   0  0  1  0  0  0  0  0  0  0  0  0
  -12.5040    8.5980    1.0180 C   0  0  0  0  0  0  0  0  0  0  0  0
  -13.2990    9.9000    0.9670 C   0  0  0  0  0  0  0  0  0  0  0  0
  -14.2880    9.8890   -0.1950 C   0  0  2  0  0  0  0  0  0  0  0  0
  -15.2870    8.8970    0.0580 O   0  0  0  0  0  0  0  0  0  0  0  0
  -13.6160    9.6150   -1.5700 C   0  0  0  0  0  0  0  0  0  0  0  0
  -12.7600   10.8380   -1.9840 C   0  0  0  0  0  0  0  0  0  0  0  0
  -14.7390    9.4910   -2.6340 C   0  0  0  0  0  0  0  0  0  0  0  0
  -10.8050    7.0320   -0.2010 C   0  0  1  0  0  0  0  0  0  0  0  0
  -11.5580    5.9000    0.5610 C   0  0  0  0  0  0  0  0  0  0  0  0
   -9.5270    7.3690    0.6550 C   0  0  0  0  0  0  0  0  0  0  0  0
   -8.3190    7.9540   -0.1020 C   0  0  0  0  0  0  0  0  0  0  0  0
   -7.9900    7.1180   -1.3420 C   0  0  2  0  0  0  0  0  0  0  0  0
   -7.5850    5.6840   -0.8580 C   0  0  0  0  0  0  0  0  0  0  0  0
   -5.0185    5.6341   -0.7056 H   0  0  0  0  0  0  0  0  0  0  0  0
   -5.8849    5.3930   -2.2605 H   0  0  0  0  0  0  0  0  0  0  0  0
   -4.1321    5.7860   -2.2605 H   0  0  0  0  0  0  0  0  0  0  0  0
   -4.7371    7.9286   -2.5126 H   0  0  0  0  0  0  0  0  0  0  0  0
   -6.1716    8.5894   -0.1194 H   0  0  0  0  0  0  0  0  0  0  0  0
   -4.8719    7.3626    0.2661 H   0  0  0  0  0  0  0  0  0  0  0  0
   -4.4367   10.0038   -1.1808 H   0  0  0  0  0  0  0  0  0  0  0  0
   -4.0771    9.6610    0.5627 H   0  0  0  0  0  0  0  0  0  0  0  0
   -3.2655    7.8222   -1.3150 H   0  0  0  0  0  0  0  0  0  0  0  0
   -1.7591   11.4385   -0.1897 H   0  0  0  0  0  0  0  0  0  0  0  0
   -0.8616   11.4807   -1.7451 H   0  0  0  0  0  0  0  0  0  0  0  0
   -2.6531   11.3487   -1.7451 H   0  0  0  0  0  0  0  0  0  0  0  0
    0.2491    8.5485   -1.3377 H   0  0  0  0  0  0  0  0  0  0  0  0
   -0.9211    8.1620   -2.6445 H   0  0  0  0  0  0  0  0  0  0  0  0
   -0.0639    9.7405   -2.6445 H   0  0  0  0  0  0  0  0  0  0  0  0
   -6.8987    8.7509   -2.2988 H   0  0  0  0  0  0  0  0  0  0  0  0
   -7.0366    7.6503   -4.4466 H   0  0  0  0  0  0  0  0  0  0  0  0
   -6.4626    6.1071   -3.7795 H   0  0  0  0  0  0  0  0  0  0  0  0
   -9.1704    6.7186   -4.4601 H   0  0  0  0  0  0  0  0  0  0  0  0
   -8.6877    5.3479   -3.4640 H   0  0  0  0  0  0  0  0  0  0  0  0
   -9.7786    9.2475   -1.9636 H   0  0  0  0  0  0  0  0  0  0  0  0
   -8.7802    8.9863   -3.4339 H   0  0  0  0  0  0  0  0  0  0  0  0
  -10.5165    8.5261   -3.4339 H   0  0  0  0  0  0  0  0  0  0  0  0
  -10.0564    5.4326   -1.4684 H   0  0  0  0  0  0  0  0  0  0  0  0
  -11.3584    6.2029   -3.5538 H   0  0  0  0  0  0  0  0  0  0  0  0
  -12.2195    5.4113   -2.1318 H   0  0  0  0  0  0  0  0  0  0  0  0
  -13.4307    7.4809   -3.2228 H   0  0  0  0  0  0  0  0  0  0  0  0
  -10.9869    9.1277   -0.4628 H   0  0  0  0  0  0  0  0  0  0  0  0
  -13.2017    7.7654    1.1911 H   0  0  0  0  0  0  0  0  0  0  0  0
  -11.7697    8.6867    1.8322 H   0  0  0  0  0  0  0  0  0  0  0  0
  -13.8525   10.0212    1.9099 H   0  0  0  0  0  0  0  0  0  0  0  0
  -12.5973   10.7348    0.8234 H   0  0  0  0  0  0  0  0  0  0  0  0
  -14.7327   10.8932   -0.2579 H   0  0  0  0  0  0  0  0  0  0  0  0
  -14.8340    8.1000    0.3810 H   0  0  0  0  0  0  0  0  0  0  0  0
  -12.3985   11.3545   -1.0826 H   0  0  0  0  0  0  0  0  0  0  0  0
  -11.9010   10.4989   -2.5817 H   0  0  0  0  0  0  0  0  0  0  0  0
  -13.3727   11.5290   -2.5817 H   0  0  0  0  0  0  0  0  0  0  0  0
  -15.7110    9.3837   -2.1304 H   0  0  0  0  0  0  0  0  0  0  0  0
  -14.7495   10.3934   -3.2629 H   0  0  0  0  0  0  0  0  0  0  0  0
  -14.5524    8.6080   -3.2629 H   0  0  0  0  0  0  0  0  0  0  0  0
  -11.4543    6.0559    1.6450 H   0  0  0  0  0  0  0  0  0  0  0  0
  -12.6234    5.9200    0.2879 H   0  0  0  0  0  0  0  0  0  0  0  0
  -11.1278    4.9252    0.2879 H   0  0  0  0  0  0  0  0  0  0  0  0
   -9.8236    8.0985    1.4231 H   0  0  0  0  0  0  0  0  0  0  0  0
   -9.1801    6.4019    1.0478 H   0  0  0  0  0  0  0  0  0  0  0  0
   -8.5537    8.9825   -0.4137 H   0  0  0  0  0  0  0  0  0  0  0  0
   -7.4471    7.9435    0.5686 H   0  0  0  0  0  0  0  0  0  0  0  0
   -7.5773    5.6567    0.2416 H   0  0  0  0  0  0  0  0  0  0  0  0
   -8.3110    4.9501   -1.2379 H   0  0  0  0  0  0  0  0  0  0  0  0
   -6.5823    5.4383   -1.2379 H   0  0  0  0  0  0  0  0  0  0  0  0
  1  2  1  0
  2  3  1  0
  3  4  1  0
  4  5  1  0
  5  6  1  0
  6  7  1  0
  7  8  1  0
  7  9  1  0
  2 10  1  0
 10 11  1  0
 11 12  1  0
 12 13  1  0
 13 14  1  6
 13 15  1  0
 15 16  1  0
 16 17  1  0
 17 18  2  0
 18 19  1  0
 19 20  1  0
 20 21  1  0
 21 22  1  0
 22 23  1  0
 22 24  1  0
 24 25  1  0
 24 26  1  0
 19 27  1  0
 27 28  1  1
 27 29  1  0
 29 30  1  0
 30 31  1  0
 31 32  1  1
  7  5  1  0
 31 10  1  0
 31 13  1  0
 27 15  1  0
 24 18  1  0
  1 33  1  0
  1 34  1  0
  1 35  1  0
  2 36  1  6
  3 37  1  0
  3 38  1  0
  4 39  1  0
  4 40  1  0
  5 41  1  6
  8 42  1  0
  8 43  1  0
  8 44  1  0
  9 45  1  0
  9 46  1  0
  9 47  1  0
 10 48  1  6
 11 49  1  0
 11 50  1  0
 12 51  1  0
 12 52  1  0
 14 53  1  0
 14 54  1  0
 14 55  1  0
 15 56  1  1
 16 57  1  0
 16 58  1  0
 17 59  1  0
 19 60  1  6
 20 61  1  0
 20 62  1  0
 21 63  1  0
 21 64  1  0
 22 65  1  6
 23 66  1  0
 25 67  1  0
 25 68  1  0
 25 69  1  0
 26 70  1  0
 26 71  1  0
 26 72  1  0
 28 73  1  0
 28 74  1  0
 28 75  1  0
 29 76  1  0
 29 77  1  0
 30 78  1  0
 30 79  1  0
 32 80  1  0
 32 81  1  0
 32 82  1  0
M  END
>  <meeko>  (5) 
{"is_sidechain": [false], "intermolecular_energy": 2.731, "internal_energy": -0.839}

$$$$
EPH_relaxed_0001_pdb2pqr_Repair_226_r2_0001_out
     RDKit          3D

 82 86  0  0  0  0  0  0  0  0999 V2000
    0.4060    8.8810   -2.5350 C   0  0  0  0  0  0  0  0  0  0  0  0
    1.1700   10.0410   -3.1810 C   0  0  2  0  0  0  0  0  0  0  0  0
    2.6640   10.0370   -2.7990 C   0  0  0  0  0  0  0  0  0  0  0  0
    3.5770   10.6250   -3.8780 C   0  0  0  0  0  0  0  0  0  0  0  0
    4.9640   10.8600   -3.3620 C   0  0  2  0  0  0  0  0  0  0  0  0
    5.5820   12.0660   -3.8320 O   0  0  0  0  0  0  0  0  0  0  0  0
    6.2000   10.8350   -4.2430 C   0  0  0  0  0  0  0  0  0  0  0  0
    6.1050   10.5670   -5.7120 C   0  0  0  0  0  0  0  0  0  0  0  0
    7.5300   10.5860   -3.6030 C   0  0  0  0  0  0  0  0  0  0  0  0
    0.5340   11.3670   -2.7840 C   0  0  1  0  0  0  0  0  0  0  0  0
   -0.8400   11.1860   -2.0840 C   0  0  0  0  0  0  0  0  0  0  0  0
   -0.9490   12.3040   -1.0160 C   0  0  0  0  0  0  0  0  0  0  0  0
    0.1990   13.2820   -1.3560 C   0  0  1  0  0  0  0  0  0  0  0  0
   -0.3560   14.1640   -2.5180 C   0  0  0  0  0  0  0  0  0  0  0  0
    0.7360   14.1550   -0.1750 C   0  0  2  0  0  0  0  0  0  0  0  0
   -0.2910   15.1200    0.4420 C   0  0  0  0  0  0  0  0  0  0  0  0
   -0.3370   16.4800   -0.1720 C   0  0  0  0  0  0  0  0  0  0  0  0
    0.6010   17.0050   -0.9820 C   0  0  0  0  0  0  0  0  0  0  0  0
    1.9000   16.2450   -1.2780 C   0  0  1  0  0  0  0  0  0  0  0  0
    3.1080   17.2090   -1.1350 C   0  0  0  0  0  0  0  0  0  0  0  0
    2.9580   18.4650   -1.9890 C   0  0  0  0  0  0  0  0  0  0  0  0
    1.6850   19.2230   -1.6240 C   0  0  2  0  0  0  0  0  0  0  0  0
    1.8180   19.7360   -0.2950 O   0  0  0  0  0  0  0  0  0  0  0  0
    0.4020   18.3510   -1.7220 C   0  0  0  0  0  0  0  0  0  0  0  0
    0.0920   18.0460   -3.2090 C   0  0  0  0  0  0  0  0  0  0  0  0
   -0.7900   19.1930   -1.1940 C   0  0  0  0  0  0  0  0  0  0  0  0
    2.1060   14.8860   -0.4810 C   0  0  1  0  0  0  0  0  0  0  0  0
    2.7740   15.1750    0.8990 C   0  0  0  0  0  0  0  0  0  0  0  0
    3.1090   13.9700   -1.2760 C   0  0  0  0  0  0  0  0  0  0  0  0
    2.5030   13.0430   -2.3480 C   0  0  0  0  0  0  0  0  0  0  0  0
    1.3130   12.2590   -1.7850 C   0  0  2  0  0  0  0  0  0  0  0  0
    1.8460   11.3460   -0.6280 C   0  0  0  0  0  0  0  0  0  0  0  0
    0.4637    8.9686   -1.4400 H   0  0  0  0  0  0  0  0  0  0  0  0
   -0.6472    8.9147   -2.8506 H   0  0  0  0  0  0  0  0  0  0  0  0
    0.8529    7.9267   -2.8506 H   0  0  0  0  0  0  0  0  0  0  0  0
    1.1084    9.9113   -4.2716 H   0  0  0  0  0  0  0  0  0  0  0  0
    2.7888   10.6272   -1.8792 H   0  0  0  0  0  0  0  0  0  0  0  0
    2.9590    8.9856   -2.6665 H   0  0  0  0  0  0  0  0  0  0  0  0
    3.6255    9.9244   -4.7247 H   0  0  0  0  0  0  0  0  0  0  0  0
    3.1588   11.5930   -4.1911 H   0  0  0  0  0  0  0  0  0  0  0  0
    4.7225   10.3552   -2.4150 H   0  0  0  0  0  0  0  0  0  0  0  0
    5.7415    9.5416   -5.8749 H   0  0  0  0  0  0  0  0  0  0  0  0
    5.4053   11.2812   -6.1705 H   0  0  0  0  0  0  0  0  0  0  0  0
    7.0983   10.6811   -6.1705 H   0  0  0  0  0  0  0  0  0  0  0  0
    7.4199   10.6066   -2.5087 H   0  0  0  0  0  0  0  0  0  0  0  0
    7.9085    9.6014   -3.9150 H   0  0  0  0  0  0  0  0  0  0  0  0
    8.2390   11.3670   -3.9150 H   0  0  0  0  0  0  0  0  0  0  0  0
    0.4922   11.8528   -3.7701 H   0  0  0  0  0  0  0  0  0  0  0  0
   -1.6542   11.2821   -2.8173 H   0  0  0  0  0  0  0  0  0  0  0  0
   -0.9201   10.1905   -1.6230 H   0  0  0  0  0  0  0  0  0  0  0  0
   -1.9231   12.8107   -1.0823 H   0  0  0  0  0  0  0  0  0  0  0  0
   -0.8722   11.9109    0.0085 H   0  0  0  0  0  0  0  0  0  0  0  0
   -0.8976   15.0247   -2.0986 H   0  0  0  0  0  0  0  0  0  0  0  0
    0.4794   14.5228   -3.1372 H   0  0  0  0  0  0  0  0  0  0  0  0
   -1.0409   13.5661   -3.1372 H   0  0  0  0  0  0  0  0  0  0  0  0
    0.9420   13.4028    0.6008 H   0  0  0  0  0  0  0  0  0  0  0  0
   -1.2880   14.6667    0.3391 H   0  0  0  0  0  0  0  0  0  0  0  0
    0.0199   15.2681    1.4867 H   0  0  0  0  0  0  0  0  0  0  0  0
   -1.2118   17.1062    0.0570 H   0  0  0  0  0  0  0  0  0  0  0  0
    1.8192   15.8993   -2.3191 H   0  0  0  0  0  0  0  0  0  0  0  0
    3.1975   17.5082   -0.0803 H   0  0  0  0  0  0  0  0  0  0  0  0
    4.0048   16.6745   -1.4814 H   0  0  0  0  0  0  0  0  0  0  0  0
    3.8267   19.1191   -1.8231 H   0  0  0  0  0  0  0  0  0  0  0  0
    2.8982   18.1662   -3.0459 H   0  0  0  0  0  0  0  0  0  0  0  0
    1.5664   20.0374   -2.3539 H   0  0  0  0  0  0  0  0  0  0  0  0
    2.7270   20.0660   -0.1970 H   0  0  0  0  0  0  0  0  0  0  0  0
   -0.6909   17.2757   -3.2698 H   0  0  0  0  0  0  0  0  0  0  0  0
   -0.2565   18.9631   -3.7065 H   0  0  0  0  0  0  0  0  0  0  0  0
    1.0033   17.6826   -3.7065 H   0  0  0  0  0  0  0  0  0  0  0  0
   -0.7834   19.1884   -0.0940 H   0  0  0  0  0  0  0  0  0  0  0  0
   -0.6975   20.2273   -1.5569 H   0  0  0  0  0  0  0  0  0  0  0  0
   -1.7339   18.7601   -1.5569 H   0  0  0  0  0  0  0  0  0  0  0  0
    2.0891   14.8787    1.7071 H   0  0  0  0  0  0  0  0  0  0  0  0
    3.7086   14.6007    0.9814 H   0  0  0  0  0  0  0  0  0  0  0  0
    2.9953   16.2493    0.9814 H   0  0  0  0  0  0  0  0  0  0  0  0
    3.8350   14.6276   -1.7765 H   0  0  0  0  0  0  0  0  0  0  0  0
    3.5413   13.2950   -0.5227 H   0  0  0  0  0  0  0  0  0  0  0  0
    2.1631   13.6511   -3.1993 H   0  0  0  0  0  0  0  0  0  0  0  0
    3.2740   12.3275   -2.6698 H   0  0  0  0  0  0  0  0  0  0  0  0
    1.5847   11.7936    0.3422 H   0  0  0  0  0  0  0  0  0  0  0  0
    1.3881   10.3490   -0.7071 H   0  0  0  0  0  0  0  0  0  0  0  0
    2.9393   11.2546   -0.7071 H   0  0  0  0  0  0  0  0  0  0  0  0
  1  2  1  0
  2  3  1  0
  3  4  1  0
  4  5  1  0
  5  6  1  0
  6  7  1  0
  7  8  1  0
  7  9  1  0
  2 10  1  0
 10 11  1  0
 11 12  1  0
 12 13  1  0
 13 14  1  6
 13 15  1  0
 15 16  1  0
 16 17  1  0
 17 18  2  0
 18 19  1  0
 19 20  1  0
 20 21  1  0
 21 22  1  0
 22 23  1  0
 22 24  1  0
 24 25  1  0
 24 26  1  0
 19 27  1  0
 27 28  1  1
 27 29  1  0
 29 30  1  0
 30 31  1  0
 31 32  1  1
  7  5  1  0
 31 10  1  0
 31 13  1  0
 27 15  1  0
 24 18  1  0
  1 33  1  0
  1 34  1  0
  1 35  1  0
  2 36  1  6
  3 37  1  0
  3 38  1  0
  4 39  1  0
  4 40  1  0
  5 41  1  1
  8 42  1  0
  8 43  1  0
  8 44  1  0
  9 45  1  0
  9 46  1  0
  9 47  1  0
 10 48  1  6
 11 49  1  0
 11 50  1  0
 12 51  1  0
 12 52  1  0
 14 53  1  0
 14 54  1  0
 14 55  1  0
 15 56  1  1
 16 57  1  0
 16 58  1  0
 17 59  1  0
 19 60  1  6
 20 61  1  0
 20 62  1  0
 21 63  1  0
 21 64  1  0
 22 65  1  6
 23 66  1  0
 25 67  1  0
 25 68  1  0
 25 69  1  0
 26 70  1  0
 26 71  1  0
 26 72  1  0
 28 73  1  0
 28 74  1  0
 28 75  1  0
 29 76  1  0
 29 77  1  0
 30 78  1  0
 30 79  1  0
 32 80  1  0
 32 81  1  0
 32 82  1  0
M  END
>  <meeko>  (6) 
{"is_sidechain": [false], "intermolecular_energy": 2.731, "internal_energy": -0.839}

$$$$
EPH_relaxed_0001_pdb2pqr_Repair_226_r2_0001_out
     RDKit          3D

 82 86  0  0  0  0  0  0  0  0999 V2000
    4.1320   17.1860   -0.3730 C   0  0  0  0  0  0  0  0  0  0  0  0
    3.0050   17.3430   -1.3970 C   0  0  2  0  0  0  0  0  0  0  0  0
    2.4200   18.7700   -1.4010 C   0  0  0  0  0  0  0  0  0  0  0  0
    2.0710   19.2960   -0.0070 C   0  0  0  0  0  0  0  0  0  0  0  0
    0.7780   20.0550   -0.0070 C   0  0  2  0  0  0  0  0  0  0  0  0
    0.1570   20.1790    1.2780 O   0  0  0  0  0  0  0  0  0  0  0  0
   -0.5650   19.4180    0.2960 C   0  0  0  0  0  0  0  0  0  0  0  0
   -0.6830   17.9620    0.6210 C   0  0  0  0  0  0  0  0  0  0  0  0
   -1.8050   20.0950   -0.1990 C   0  0  0  0  0  0  0  0  0  0  0  0
    1.9030   16.3290   -1.1170 C   0  0  1  0  0  0  0  0  0  0  0  0
    0.4820   16.9420   -1.2340 C   0  0  0  0  0  0  0  0  0  0  0  0
   -0.4380   15.8340   -1.8080 C   0  0  0  0  0  0  0  0  0  0  0  0
    0.3950   14.5360   -1.6900 C   0  0  1  0  0  0  0  0  0  0  0  0
    0.2250   14.0840   -0.2050 C   0  0  0  0  0  0  0  0  0  0  0  0
    0.0310   13.3890   -2.6880 C   0  0  2  0  0  0  0  0  0  0  0  0
   -1.3950   12.8290   -2.5470 C   0  0  0  0  0  0  0  0  0  0  0  0
   -1.5390   11.6770   -1.6080 C   0  0  0  0  0  0  0  0  0  0  0  0
   -0.5280   10.9320   -1.1250 C   0  0  0  0  0  0  0  0  0  0  0  0
    0.9140   11.1590   -1.5960 C   0  0  1  0  0  0  0  0  0  0  0  0
    1.5720    9.7940   -1.9280 C   0  0  0  0  0  0  0  0  0  0  0  0
    1.4860    8.8060   -0.7690 C   0  0  0  0  0  0  0  0  0  0  0  0
    0.0340    8.5610   -0.3670 C   0  0  2  0  0  0  0  0  0  0  0  0
   -0.6310    7.8820   -1.4360 O   0  0  0  0  0  0  0  0  0  0  0  0
   -0.7340    9.8670   -0.0190 C   0  0  0  0  0  0  0  0  0  0  0  0
   -0.2020   10.4440    1.3160 C   0  0  0  0  0  0  0  0  0  0  0  0
   -2.2200    9.4950    0.2300 C   0  0  0  0  0  0  0  0  0  0  0  0
    1.1030   12.2270   -2.7580 C   0  0  1  0  0  0  0  0  0  0  0  0
    0.9240   11.5390   -4.1460 C   0  0  0  0  0  0  0  0  0  0  0  0
    2.5800   12.7720   -2.7200 C   0  0  0  0  0  0  0  0  0  0  0  0
    2.8500   13.9820   -1.8060 C   0  0  0  0  0  0  0  0  0  0  0  0
    1.8220   15.0920   -2.0460 C   0  0  2  0  0  0  0  0  0  0  0  0
    1.9830   15.5820   -3.5260 C   0  0  0  0  0  0  0  0  0  0  0  0
    3.7148   17.2441    0.6432 H   0  0  0  0  0  0  0  0  0  0  0  0
    4.6216   16.2110   -0.5132 H   0  0  0  0  0  0  0  0  0  0  0  0
    4.8694   17.9901   -0.5132 H   0  0  0  0  0  0  0  0  0  0  0  0
    3.4343   17.1589   -2.3929 H   0  0  0  0  0  0  0  0  0  0  0  0
    3.1599   19.4473   -1.8525 H   0  0  0  0  0  0  0  0  0  0  0  0
    1.4818   18.7311   -1.9739 H   0  0  0  0  0  0  0  0  0  0  0  0
    1.9841   18.4443    0.6837 H   0  0  0  0  0  0  0  0  0  0  0  0
    2.8705   19.9817    0.3102 H   0  0  0  0  0  0  0  0  0  0  0  0
    1.1231   20.6899   -0.8363 H   0  0  0  0  0  0  0  0  0  0  0  0
   -0.6937   17.8298    1.7130 H   0  0  0  0  0  0  0  0  0  0  0  0
   -1.6162   17.5656    0.1945 H   0  0  0  0  0  0  0  0  0  0  0  0
    0.1742   17.4205    0.1945 H   0  0  0  0  0  0  0  0  0  0  0  0
   -2.4097   20.4252    0.6585 H   0  0  0  0  0  0  0  0  0  0  0  0
   -1.5278   20.9670   -0.8096 H   0  0  0  0  0  0  0  0  0  0  0  0
   -2.3886   19.3903   -0.8096 H   0  0  0  0  0  0  0  0  0  0  0  0
    2.1920   16.0193   -0.1018 H   0  0  0  0  0  0  0  0  0  0  0  0
    0.1227   17.2569   -0.2432 H   0  0  0  0  0  0  0  0  0  0  0  0
    0.4868   17.8280   -1.8859 H   0  0  0  0  0  0  0  0  0  0  0  0
   -1.3647   15.7556   -1.2205 H   0  0  0  0  0  0  0  0  0  0  0  0
   -0.7439   16.0408   -2.8442 H   0  0  0  0  0  0  0  0  0  0  0  0
    0.5323   14.9010    0.4644 H   0  0  0  0  0  0  0  0  0  0  0  0
   -0.8292   13.8325   -0.0167 H   0  0  0  0  0  0  0  0  0  0  0  0
    0.8521   13.2001   -0.0167 H   0  0  0  0  0  0  0  0  0  0  0  0
    0.0546   13.9053   -3.6590 H   0  0  0  0  0  0  0  0  0  0  0  0
   -2.0452   13.6414   -2.1902 H   0  0  0  0  0  0  0  0  0  0  0  0
   -1.6711   12.4471   -3.5410 H   0  0  0  0  0  0  0  0  0  0  0  0
   -2.5571   11.4154   -1.2839 H   0  0  0  0  0  0  0  0  0  0  0  0
    1.4392   11.6300   -0.7520 H   0  0  0  0  0  0  0  0  0  0  0  0
    1.0619    9.3595   -2.8003 H   0  0  0  0  0  0  0  0  0  0  0  0
    2.6372    9.9776   -2.1319 H   0  0  0  0  0  0  0  0  0  0  0  0
    1.9407    7.8521   -1.0747 H   0  0  0  0  0  0  0  0  0  0  0  0
    2.0222    9.2291    0.0933 H   0  0  0  0  0  0  0  0  0  0  0  0
    0.0429    7.9497    0.5475 H   0  0  0  0  0  0  0  0  0  0  0  0
   -1.4200    7.4510   -1.0650 H   0  0  0  0  0  0  0  0  0  0  0  0
   -0.6821    9.9233    2.1577 H   0  0  0  0  0  0  0  0  0  0  0  0
    0.8873   10.3005    1.3693 H   0  0  0  0  0  0  0  0  0  0  0  0
   -0.4333   11.5181    1.3693 H   0  0  0  0  0  0  0  0  0  0  0  0
   -2.4097    9.4475    1.3125 H   0  0  0  0  0  0  0  0  0  0  0  0
   -2.8699   10.2582   -0.2230 H   0  0  0  0  0  0  0  0  0  0  0  0
   -2.4337    8.5156   -0.2230 H   0  0  0  0  0  0  0  0  0  0  0  0
    0.6495   10.4839   -3.9996 H   0  0  0  0  0  0  0  0  0  0  0  0
    0.1289   12.0500   -4.7087 H   0  0  0  0  0  0  0  0  0  0  0  0
    1.8673   11.5977   -4.7087 H   0  0  0  0  0  0  0  0  0  0  0  0
    3.2296   11.9500   -2.3847 H   0  0  0  0  0  0  0  0  0  0  0  0
    2.7808   13.1311   -3.7401 H   0  0  0  0  0  0  0  0  0  0  0  0
    2.7925   13.6594   -0.7559 H   0  0  0  0  0  0  0  0  0  0  0  0
    3.8512   14.3766   -2.0339 H   0  0  0  0  0  0  0  0  0  0  0  0
    2.3264   16.6270   -3.5309 H   0  0  0  0  0  0  0  0  0  0  0  0
    2.7211   14.9511   -4.0429 H   0  0  0  0  0  0  0  0  0  0  0  0
    1.0145   15.5118   -4.0429 H   0  0  0  0  0  0  0  0  0  0  0  0
  1  2  1  0
  2  3  1  0
  3  4  1  0
  4  5  1  0
  5  6  1  0
  6  7  1  0
  7  8  1  0
  7  9  1  0
  2 10  1  0
 10 11  1  0
 11 12  1  0
 12 13  1  0
 13 14  1  1
 13 15  1  0
 15 16  1  0
 16 17  1  0
 17 18  2  0
 18 19  1  0
 19 20  1  0
 20 21  1  0
 21 22  1  0
 22 23  1  0
 22 24  1  0
 24 25  1  0
 24 26  1  0
 19 27  1  0
 27 28  1  6
 27 29  1  0
 29 30  1  0
 30 31  1  0
 31 32  1  6
  7  5  1  0
 31 10  1  0
 31 13  1  0
 27 15  1  0
 24 18  1  0
  1 33  1  0
  1 34  1  0
  1 35  1  0
  2 36  1  6
  3 37  1  0
  3 38  1  0
  4 39  1  0
  4 40  1  0
  5 41  1  6
  8 42  1  0
  8 43  1  0
  8 44  1  0
  9 45  1  0
  9 46  1  0
  9 47  1  0
 10 48  1  1
 11 49  1  0
 11 50  1  0
 12 51  1  0
 12 52  1  0
 14 53  1  0
 14 54  1  0
 14 55  1  0
 15 56  1  6
 16 57  1  0
 16 58  1  0
 17 59  1  0
 19 60  1  1
 20 61  1  0
 20 62  1  0
 21 63  1  0
 21 64  1  0
 22 65  1  1
 23 66  1  0
 25 67  1  0
 25 68  1  0
 25 69  1  0
 26 70  1  0
 26 71  1  0
 26 72  1  0
 28 73  1  0
 28 74  1  0
 28 75  1  0
 29 76  1  0
 29 77  1  0
 30 78  1  0
 30 79  1  0
 32 80  1  0
 32 81  1  0
 32 82  1  0
M  END
>  <meeko>  (7) 
{"is_sidechain": [false], "intermolecular_energy": 2.731, "internal_energy": -0.839}

$$$$
EPH_relaxed_0001_pdb2pqr_Repair_226_r2_0001_out
     RDKit          3D

 82 86  0  0  0  0  0  0  0  0999 V2000
    0.1980   17.8300   -2.5400 C   0  0  0  0  0  0  0  0  0  0  0  0
   -0.0600   16.9200   -1.3350 C   0  0  2  0  0  0  0  0  0  0  0  0
   -0.1240   17.7120   -0.0140 C   0  0  0  0  0  0  0  0  0  0  0  0
    0.4980   19.1080   -0.1010 C   0  0  0  0  0  0  0  0  0  0  0  0
    1.6460   19.2640    0.8490 C   0  0  2  0  0  0  0  0  0  0  0  0
    2.6520   20.1940    0.4260 O   0  0  0  0  0  0  0  0  0  0  0  0
    3.0620   18.8210    0.5300 C   0  0  0  0  0  0  0  0  0  0  0  0
    3.4050   18.1870   -0.7820 C   0  0  0  0  0  0  0  0  0  0  0  0
    4.0020   18.5580    1.6650 C   0  0  0  0  0  0  0  0  0  0  0  0
    1.0220   15.8510   -1.2500 C   0  0  1  0  0  0  0  0  0  0  0  0
    1.2460   15.3420    0.1990 C   0  0  0  0  0  0  0  0  0  0  0  0
    1.5920   13.8340    0.0950 C   0  0  0  0  0  0  0  0  0  0  0  0
    1.8810   13.6030   -1.4070 C   0  0  1  0  0  0  0  0  0  0  0  0
    3.3520   14.0830   -1.6110 C   0  0  0  0  0  0  0  0  0  0  0  0
    1.6710   12.1460   -1.9350 C   0  0  2  0  0  0  0  0  0  0  0  0
    2.5840   11.0830   -1.2990 C   0  0  0  0  0  0  0  0  0  0  0  0
    3.8800   10.8520   -2.0040 C   0  0  0  0  0  0  0  0  0  0  0  0
    4.1740   11.2590   -3.2520 C   0  0  0  0  0  0  0  0  0  0  0  0
    3.1170   11.9450   -4.1270 C   0  0  1  0  0  0  0  0  0  0  0  0
    3.1340   11.3180   -5.5460 C   0  0  0  0  0  0  0  0  0  0  0  0
    4.5210   11.3420   -6.1810 C   0  0  0  0  0  0  0  0  0  0  0  0
    5.5320   10.6000   -5.3100 C   0  0  2  0  0  0  0  0  0  0  0  0
    5.1940    9.2100   -5.2950 O   0  0  0  0  0  0  0  0  0  0  0  0
    5.5970   11.1380   -3.8530 C   0  0  0  0  0  0  0  0  0  0  0  0
    6.2480   12.5430   -3.8450 C   0  0  0  0  0  0  0  0  0  0  0  0
    6.5480   10.2140   -3.0450 C   0  0  0  0  0  0  0  0  0  0  0  0
    1.6540   12.0250   -3.5120 C   0  0  1  0  0  0  0  0  0  0  0  0
    0.8630   10.7240   -3.8500 C   0  0  0  0  0  0  0  0  0  0  0  0
    0.8730   13.2090   -4.1950 C   0  0  0  0  0  0  0  0  0  0  0  0
    1.0270   14.6020   -3.5560 C   0  0  0  0  0  0  0  0  0  0  0  0
    0.7920   14.5400   -2.0440 C   0  0  2  0  0  0  0  0  0  0  0  0
   -0.6880   14.0810   -1.8080 C   0  0  0  0  0  0  0  0  0  0  0  0
    0.4823   18.8327   -2.1881 H   0  0  0  0  0  0  0  0  0  0  0  0
    1.0126   17.4104   -3.1486 H   0  0  0  0  0  0  0  0  0  0  0  0
   -0.7156   17.9004   -3.1486 H   0  0  0  0  0  0  0  0  0  0  0  0
   -1.0407   16.4443   -1.4827 H   0  0  0  0  0  0  0  0  0  0  0  0
   -1.1798   17.8200    0.2750 H   0  0  0  0  0  0  0  0  0  0  0  0
    0.4593   17.1466    0.7276 H   0  0  0  0  0  0  0  0  0  0  0  0
    0.8591   19.2739   -1.1267 H   0  0  0  0  0  0  0  0  0  0  0  0
   -0.2732   19.8442    0.1697 H   0  0  0  0  0  0  0  0  0  0  0  0
    0.9893   19.0730    1.7105 H   0  0  0  0  0  0  0  0  0  0  0  0
    3.9215   17.2323   -0.6040 H   0  0  0  0  0  0  0  0  0  0  0  0
    2.4828   18.0041   -1.3531 H   0  0  0  0  0  0  0  0  0  0  0  0
    4.0627   18.8588   -1.3531 H   0  0  0  0  0  0  0  0  0  0  0  0
    3.4750   18.7054    2.6192 H   0  0  0  0  0  0  0  0  0  0  0  0
    4.3689   17.5227    1.6049 H   0  0  0  0  0  0  0  0  0  0  0  0
    4.8528   19.2526    1.6049 H   0  0  0  0  0  0  0  0  0  0  0  0
    1.8660   16.4088   -1.6819 H   0  0  0  0  0  0  0  0  0  0  0  0
    2.0763   15.8896    0.6687 H   0  0  0  0  0  0  0  0  0  0  0  0
    0.3492   15.4998    0.8161 H   0  0  0  0  0  0  0  0  0  0  0  0
    2.4779   13.5960    0.7021 H   0  0  0  0  0  0  0  0  0  0  0  0
    0.7793   13.1928    0.4670 H   0  0  0  0  0  0  0  0  0  0  0  0
    3.8265   14.2378   -0.6307 H   0  0  0  0  0  0  0  0  0  0  0  0
    3.9118   13.3209   -2.1730 H   0  0  0  0  0  0  0  0  0  0  0  0
    3.3545   15.0286   -2.1730 H   0  0  0  0  0  0  0  0  0  0  0  0
    0.6542   11.9128   -1.5859 H   0  0  0  0  0  0  0  0  0  0  0  0
    2.8085   11.3994   -0.2697 H   0  0  0  0  0  0  0  0  0  0  0  0
    2.0321   10.1332   -1.3570 H   0  0  0  0  0  0  0  0  0  0  0  0
    4.6601   10.3027   -1.4566 H   0  0  0  0  0  0  0  0  0  0  0  0
    3.4089   13.0041   -4.1835 H   0  0  0  0  0  0  0  0  0  0  0  0
    2.7976   10.2732   -5.4736 H   0  0  0  0  0  0  0  0  0  0  0  0
    2.4655   11.9161   -6.1827 H   0  0  0  0  0  0  0  0  0  0  0  0
    4.4735   10.8593   -7.1683 H   0  0  0  0  0  0  0  0  0  0  0  0
    4.8440   12.3888   -6.2802 H   0  0  0  0  0  0  0  0  0  0  0  0
    6.5277   10.7622   -5.7486 H   0  0  0  0  0  0  0  0  0  0  0  0
    4.3550    9.1050   -5.7750 H   0  0  0  0  0  0  0  0  0  0  0  0
    6.3999   12.8708   -2.8060 H   0  0  0  0  0  0  0  0  0  0  0  0
    7.2182   12.5005   -4.3616 H   0  0  0  0  0  0  0  0  0  0  0  0
    5.5884   13.2557   -4.3616 H   0  0  0  0  0  0  0  0  0  0  0  0
    6.3855   10.3719   -1.9686 H   0  0  0  0  0  0  0  0  0  0  0  0
    6.3402    9.1636   -3.2970 H   0  0  0  0  0  0  0  0  0  0  0  0
    7.5920   10.4519   -3.2970 H   0  0  0  0  0  0  0  0  0  0  0  0
    0.5603   10.2261   -2.9170 H   0  0  0  0  0  0  0  0  0  0  0  0
   -0.0320   10.9808   -4.4357 H   0  0  0  0  0  0  0  0  0  0  0  0
    1.5029   10.0476   -4.4357 H   0  0  0  0  0  0  0  0  0  0  0  0
    1.2205   13.2802   -5.2362 H   0  0  0  0  0  0  0  0  0  0  0  0
   -0.1913   12.9558   -4.0808 H   0  0  0  0  0  0  0  0  0  0  0  0
    2.0439   14.9753   -3.7472 H   0  0  0  0  0  0  0  0  0  0  0  0
    0.2798   15.2763   -3.9999 H   0  0  0  0  0  0  0  0  0  0  0  0
   -0.8851   14.0199   -0.7275 H   0  0  0  0  0  0  0  0  0  0  0  0
   -1.3748   14.8083   -2.2654 H   0  0  0  0  0  0  0  0  0  0  0  0
   -0.8427   13.0927   -2.2654 H   0  0  0  0  0  0  0  0  0  0  0  0
  1  2  1  0
  2  3  1  0
  3  4  1  0
  4  5  1  0
  5  6  1  0
  6  7  1  0
  7  8  1  0
  7  9  1  0
  2 10  1  0
 10 11  1  0
 11 12  1  0
 12 13  1  0
 13 14  1  1
 13 15  1  0
 15 16  1  0
 16 17  1  0
 17 18  2  0
 18 19  1  0
 19 20  1  0
 20 21  1  0
 21 22  1  0
 22 23  1  0
 22 24  1  0
 24 25  1  0
 24 26  1  0
 19 27  1  0
 27 28  1  1
 27 29  1  0
 29 30  1  0
 30 31  1  0
 31 32  1  6
  7  5  1  0
 31 10  1  0
 31 13  1  0
 27 15  1  0
 24 18  1  0
  1 33  1  0
  1 34  1  0
  1 35  1  0
  2 36  1  6
  3 37  1  0
  3 38  1  0
  4 39  1  0
  4 40  1  0
  5 41  1  1
  8 42  1  0
  8 43  1  0
  8 44  1  0
  9 45  1  0
  9 46  1  0
  9 47  1  0
 10 48  1  6
 11 49  1  0
 11 50  1  0
 12 51  1  0
 12 52  1  0
 14 53  1  0
 14 54  1  0
 14 55  1  0
 15 56  1  1
 16 57  1  0
 16 58  1  0
 17 59  1  0
 19 60  1  6
 20 61  1  0
 20 62  1  0
 21 63  1  0
 21 64  1  0
 22 65  1  6
 23 66  1  0
 25 67  1  0
 25 68  1  0
 25 69  1  0
 26 70  1  0
 26 71  1  0
 26 72  1  0
 28 73  1  0
 28 74  1  0
 28 75  1  0
 29 76  1  0
 29 77  1  0
 30 78  1  0
 30 79  1  0
 32 80  1  0
 32 81  1  0
 32 82  1  0
M  END
>  <meeko>  (8) 
{"is_sidechain": [false], "intermolecular_energy": 2.731, "internal_energy": -0.839}

$$$$
EPH_relaxed_0001_pdb2pqr_Repair_226_r2_0001_out
     RDKit          3D

 82 86  0  0  0  0  0  0  0  0999 V2000
    3.3910   18.3680   -2.8310 C   0  0  0  0  0  0  0  0  0  0  0  0
    2.0930   17.5640   -2.9510 C   0  0  2  0  0  0  0  0  0  0  0  0
    0.8650   18.3710   -2.4840 C   0  0  0  0  0  0  0  0  0  0  0  0
    1.0540   19.0470   -1.1230 C   0  0  0  0  0  0  0  0  0  0  0  0
   -0.1360   19.8760   -0.7460 C   0  0  2  0  0  0  0  0  0  0  0  0
   -0.2260   20.1940    0.6490 O   0  0  0  0  0  0  0  0  0  0  0  0
   -1.2720   19.3640    0.1190 C   0  0  0  0  0  0  0  0  0  0  0  0
   -1.2740   17.9680    0.6590 C   0  0  0  0  0  0  0  0  0  0  0  0
   -2.6010   20.0480    0.0350 C   0  0  0  0  0  0  0  0  0  0  0  0
    2.2050   16.2740   -2.1490 C   0  0  1  0  0  0  0  0  0  0  0  0
    2.5910   16.5230   -0.6660 C   0  0  0  0  0  0  0  0  0  0  0  0
    1.8530   15.4500    0.1750 C   0  0  0  0  0  0  0  0  0  0  0  0
    1.3400   14.4260   -0.8630 C   0  0  1  0  0  0  0  0  0  0  0  0
    2.5700   13.5170   -1.1730 C   0  0  0  0  0  0  0  0  0  0  0  0
    0.0910   13.5830   -0.4430 C   0  0  2  0  0  0  0  0  0  0  0  0
    0.3000   12.6730    0.7800 C   0  0  0  0  0  0  0  0  0  0  0  0
    0.7790   11.2930    0.4740 C   0  0  0  0  0  0  0  0  0  0  0  0
    0.7600   10.7090   -0.7390 C   0  0  0  0  0  0  0  0  0  0  0  0
    0.1290   11.4180   -1.9440 C   0  0  1  0  0  0  0  0  0  0  0  0
   -0.7860   10.4250   -2.7080 C   0  0  0  0  0  0  0  0  0  0  0  0
   -0.0580    9.1420   -3.1000 C   0  0  0  0  0  0  0  0  0  0  0  0
    0.5050    8.4370   -1.8690 C   0  0  2  0  0  0  0  0  0  0  0  0
   -0.5840    7.9720   -1.0660 O   0  0  0  0  0  0  0  0  0  0  0  0
    1.4350    9.3430   -1.0150 C   0  0  0  0  0  0  0  0  0  0  0  0
    2.7570    9.6000   -1.7800 C   0  0  0  0  0  0  0  0  0  0  0  0
    1.8210    8.5580    0.2670 C   0  0  0  0  0  0  0  0  0  0  0  0
   -0.5930   12.8000   -1.6360 C   0  0  1  0  0  0  0  0  0  0  0  0
   -2.0710   12.5440   -1.2110 C   0  0  0  0  0  0  0  0  0  0  0  0
   -0.6530   13.6540   -2.9570 C   0  0  0  0  0  0  0  0  0  0  0  0
    0.5590   14.5570   -3.2550 C   0  0  0  0  0  0  0  0  0  0  0  0
    0.9320   15.3970   -2.0300 C   0  0  2  0  0  0  0  0  0  0  0  0
   -0.2790   16.3380   -1.7080 C   0  0  0  0  0  0  0  0  0  0  0  0
    3.6327   18.5177   -1.7684 H   0  0  0  0  0  0  0  0  0  0  0  0
    4.2092   17.8183   -3.3192 H   0  0  0  0  0  0  0  0  0  0  0  0
    3.2634   19.3454   -3.3192 H   0  0  0  0  0  0  0  0  0  0  0  0
    1.9469   17.3279   -4.0154 H   0  0  0  0  0  0  0  0  0  0  0  0
    0.6560   19.1496   -3.2324 H   0  0  0  0  0  0  0  0  0  0  0  0
    0.0340   17.6584   -2.3764 H   0  0  0  0  0  0  0  0  0  0  0  0
    1.2051   18.2715   -0.3577 H   0  0  0  0  0  0  0  0  0  0  0  0
    1.9281   19.7116   -1.1886 H   0  0  0  0  0  0  0  0  0  0  0  0
   -0.1227   20.3818   -1.7227 H   0  0  0  0  0  0  0  0  0  0  0  0
   -1.2740   18.0002    1.7585 H   0  0  0  0  0  0  0  0  0  0  0  0
   -2.1729   17.4402    0.3077 H   0  0  0  0  0  0  0  0  0  0  0  0
   -0.3766   17.4377    0.3077 H   0  0  0  0  0  0  0  0  0  0  0  0
   -2.9782   20.2422    1.0499 H   0  0  0  0  0  0  0  0  0  0  0  0
   -2.4896   21.0008   -0.5033 H   0  0  0  0  0  0  0  0  0  0  0  0
   -3.3116   19.4036   -0.5033 H   0  0  0  0  0  0  0  0  0  0  0  0
    2.9678   15.7525   -2.7458 H   0  0  0  0  0  0  0  0  0  0  0  0
    3.6788   16.4238   -0.5360 H   0  0  0  0  0  0  0  0  0  0  0  0
    2.3067   17.5373   -0.3491 H   0  0  0  0  0  0  0  0  0  0  0  0
    2.5431   14.9708    0.8850 H   0  0  0  0  0  0  0  0  0  0  0  0
    1.0376   15.8791    0.7759 H   0  0  0  0  0  0  0  0  0  0  0  0
    3.0247   13.1810   -0.2294 H   0  0  0  0  0  0  0  0  0  0  0  0
    2.2424   12.6423   -1.7540 H   0  0  0  0  0  0  0  0  0  0  0  0
    3.3100   14.0869   -1.7540 H   0  0  0  0  0  0  0  0  0  0  0  0
   -0.6199   14.3581   -0.1208 H   0  0  0  0  0  0  0  0  0  0  0  0
    1.0408   13.1519    1.4372 H   0  0  0  0  0  0  0  0  0  0  0  0
   -0.6903   12.5552    1.2441 H   0  0  0  0  0  0  0  0  0  0  0  0
    1.1817   10.7030    1.3105 H   0  0  0  0  0  0  0  0  0  0  0  0
    0.9659   11.7259   -2.5881 H   0  0  0  0  0  0  0  0  0  0  0  0
   -1.6386   10.1640   -2.0638 H   0  0  0  0  0  0  0  0  0  0  0  0
   -1.1149   10.9188   -3.6343 H   0  0  0  0  0  0  0  0  0  0  0  0
   -0.7634    8.4689   -3.6093 H   0  0  0  0  0  0  0  0  0  0  0  0
    0.7762    9.4016   -3.7684 H   0  0  0  0  0  0  0  0  0  0  0  0
    1.1237    7.5992   -2.2230 H   0  0  0  0  0  0  0  0  0  0  0  0
   -0.5220    7.0030   -1.0190 H   0  0  0  0  0  0  0  0  0  0  0  0
    3.5728    9.7586   -1.0593 H   0  0  0  0  0  0  0  0  0  0  0  0
    2.9899    8.7303   -2.4120 H   0  0  0  0  0  0  0  0  0  0  0  0
    2.6472   10.4936   -2.4120 H   0  0  0  0  0  0  0  0  0  0  0  0
    1.5342    9.1413    1.1544 H   0  0  0  0  0  0  0  0  0  0  0  0
    1.2952    7.5919    0.2776 H   0  0  0  0  0  0  0  0  0  0  0  0
    2.9072    8.3845    0.2776 H   0  0  0  0  0  0  0  0  0  0  0  0
   -2.1400   12.5320   -0.1132 H   0  0  0  0  0  0  0  0  0  0  0  0
   -2.7112   13.3446   -1.6100 H   0  0  0  0  0  0  0  0  0  0  0  0
   -2.4046   11.5747   -1.6100 H   0  0  0  0  0  0  0  0  0  0  0  0
   -0.7634   12.9560   -3.8000 H   0  0  0  0  0  0  0  0  0  0  0  0
   -1.4984   14.3435   -2.8163 H   0  0  0  0  0  0  0  0  0  0  0  0
    1.4167   13.9274   -3.5341 H   0  0  0  0  0  0  0  0  0  0  0  0
    0.2955   15.2366   -4.0789 H   0  0  0  0  0  0  0  0  0  0  0  0
   -0.3941   16.4274   -0.6177 H   0  0  0  0  0  0  0  0  0  0  0  0
   -0.0954   17.3328   -2.1401 H   0  0  0  0  0  0  0  0  0  0  0  0
   -1.1976   15.9144   -2.1401 H   0  0  0  0  0  0  0  0  0  0  0  0
  1  2  1  0
  2  3  1  0
  3  4  1  0
  4  5  1  0
  5  6  1  0
  6  7  1  0
  7  8  1  0
  7  9  1  0
  2 10  1  0
 10 11  1  0
 11 12  1  0
 12 13  1  0
 13 14  1  6
 13 15  1  0
 15 16  1  0
 16 17  1  0
 17 18  2  0
 18 19  1  0
 19 20  1  0
 20 21  1  0
 21 22  1  0
 22 23  1  0
 22 24  1  0
 24 25  1  0
 24 26  1  0
 19 27  1  0
 27 28  1  1
 27 29  1  0
 29 30  1  0
 30 31  1  0
 31 32  1  1
  7  5  1  0
 31 10  1  0
 31 13  1  0
 27 15  1  0
 24 18  1  0
  1 33  1  0
  1 34  1  0
  1 35  1  0
  2 36  1  6
  3 37  1  0
  3 38  1  0
  4 39  1  0
  4 40  1  0
  5 41  1  6
  8 42  1  0
  8 43  1  0
  8 44  1  0
  9 45  1  0
  9 46  1  0
  9 47  1  0
 10 48  1  6
 11 49  1  0
 11 50  1  0
 12 51  1  0
 12 52  1  0
 14 53  1  0
 14 54  1  0
 14 55  1  0
 15 56  1  1
 16 57  1  0
 16 58  1  0
 17 59  1  0
 19 60  1  6
 20 61  1  0
 20 62  1  0
 21 63  1  0
 21 64  1  0
 22 65  1  6
 23 66  1  0
 25 67  1  0
 25 68  1  0
 25 69  1  0
 26 70  1  0
 26 71  1  0
 26 72  1  0
 28 73  1  0
 28 74  1  0
 28 75  1  0
 29 76  1  0
 29 77  1  0
 30 78  1  0
 30 79  1  0
 32 80  1  0
 32 81  1  0
 32 82  1  0
M  END
>  <meeko>  (9) 
{"is_sidechain": [false], "intermolecular_energy": 2.731, "internal_energy": -0.839}

$$$$
EPH_relaxed_0001_pdb2pqr_Repair_226_r2_0001_out
     RDKit          3D

 82 86  0  0  0  0  0  0  0  0999 V2000
   -0.9450   16.3970   -5.8980 C   0  0  0  0  0  0  0  0  0  0  0  0
    0.1670   15.7070   -6.6930 C   0  0  2  0  0  0  0  0  0  0  0  0
   -0.2160   15.5080   -8.1740 C   0  0  0  0  0  0  0  0  0  0  0  0
    0.4390   16.5190   -9.1190 C   0  0  0  0  0  0  0  0  0  0  0  0
    1.8450   16.1280   -9.4620 C   0  0  2  0  0  0  0  0  0  0  0  0
    2.3380   16.6810  -10.6890 O   0  0  0  0  0  0  0  0  0  0  0  0
    2.2030   15.2510  -10.6480 C   0  0  0  0  0  0  0  0  0  0  0  0
    1.1520   14.7120  -11.5660 C   0  0  0  0  0  0  0  0  0  0  0  0
    3.5110   14.5230  -10.6290 C   0  0  0  0  0  0  0  0  0  0  0  0
    0.5030   14.3630   -6.0580 C   0  0  1  0  0  0  0  0  0  0  0  0
    1.7310   13.6800   -6.7180 C   0  0  0  0  0  0  0  0  0  0  0  0
    2.4850   12.9300   -5.5900 C   0  0  0  0  0  0  0  0  0  0  0  0
    1.5010   12.9270   -4.3970 C   0  0  1  0  0  0  0  0  0  0  0  0
    0.5170   11.7520   -4.6920 C   0  0  0  0  0  0  0  0  0  0  0  0
    2.1390   12.8030   -2.9750 C   0  0  2  0  0  0  0  0  0  0  0  0
    2.9080   11.4950   -2.7170 C   0  0  0  0  0  0  0  0  0  0  0  0
    2.0980   10.3810   -2.1430 C   0  0  0  0  0  0  0  0  0  0  0  0
    0.8800   10.5070   -1.5830 C   0  0  0  0  0  0  0  0  0  0  0  0
    0.2390   11.8880   -1.3960 C   0  0  1  0  0  0  0  0  0  0  0  0
   -0.3390   12.0010    0.0390 C   0  0  0  0  0  0  0  0  0  0  0  0
   -1.2970   10.8620    0.3750 C   0  0  0  0  0  0  0  0  0  0  0  0
   -0.6060    9.5080    0.2340 C   0  0  2  0  0  0  0  0  0  0  0  0
    0.4070    9.4010    1.2390 O   0  0  0  0  0  0  0  0  0  0  0  0
    0.0240    9.2850   -1.1690 C   0  0  0  0  0  0  0  0  0  0  0  0
   -1.0990    9.1000   -2.2200 C   0  0  0  0  0  0  0  0  0  0  0  0
    0.8090    7.9460   -1.1330 C   0  0  0  0  0  0  0  0  0  0  0  0
    1.1460   13.1330   -1.7880 C   0  0  1  0  0  0  0  0  0  0  0  0
    2.0290   13.5520   -0.5720 C   0  0  0  0  0  0  0  0  0  0  0  0
    0.2190   14.3640   -2.1080 C   0  0  0  0  0  0  0  0  0  0  0  0
   -0.2820   14.4980   -3.5590 C   0  0  0  0  0  0  0  0  0  0  0  0
    0.8750   14.3610   -4.5540 C   0  0  2  0  0  0  0  0  0  0  0  0
    1.8700   15.5430   -4.2950 C   0  0  0  0  0  0  0  0  0  0  0  0
   -0.7538   16.2783   -4.8213 H   0  0  0  0  0  0  0  0  0  0  0  0
   -0.9665   17.4673   -6.1508 H   0  0  0  0  0  0  0  0  0  0  0  0
   -1.9136   15.9410   -6.1508 H   0  0  0  0  0  0  0  0  0  0  0  0
    1.0496   16.3629   -6.6647 H   0  0  0  0  0  0  0  0  0  0  0  0
    0.0913   14.4970   -8.4796 H   0  0  0  0  0  0  0  0  0  0  0  0
   -1.3035   15.6557   -8.2480 H   0  0  0  0  0  0  0  0  0  0  0  0
   -0.1514   16.5752  -10.0455 H   0  0  0  0  0  0  0  0  0  0  0  0
    0.4688   17.4939   -8.6105 H   0  0  0  0  0  0  0  0  0  0  0  0
    2.1157   16.0760   -8.3971 H   0  0  0  0  0  0  0  0  0  0  0  0
    0.3281   14.2895  -10.9721 H   0  0  0  0  0  0  0  0  0  0  0  0
    0.7677   15.5243  -12.2004 H   0  0  0  0  0  0  0  0  0  0  0  0
    1.5874   13.9259  -12.2004 H   0  0  0  0  0  0  0  0  0  0  0  0
    3.8199   14.3511   -9.5873 H   0  0  0  0  0  0  0  0  0  0  0  0
    3.4003   13.5567  -11.1429 H   0  0  0  0  0  0  0  0  0  0  0  0
    4.2739   15.1263  -11.1429 H   0  0  0  0  0  0  0  0  0  0  0  0
   -0.4541   13.8427   -6.2102 H   0  0  0  0  0  0  0  0  0  0  0  0
    1.4000   12.9696   -7.4898 H   0  0  0  0  0  0  0  0  0  0  0  0
    2.3824   14.4218   -7.2032 H   0  0  0  0  0  0  0  0  0  0  0  0
    2.7231   11.9016   -5.8994 H   0  0  0  0  0  0  0  0  0  0  0  0
    3.4429   13.4089   -5.3390 H   0  0  0  0  0  0  0  0  0  0  0  0
    0.1600   11.3257   -3.7429 H   0  0  0  0  0  0  0  0  0  0  0  0
   -0.3398   12.1277   -5.2705 H   0  0  0  0  0  0  0  0  0  0  0  0
    1.0373   10.9744   -5.2705 H   0  0  0  0  0  0  0  0  0  0  0  0
    2.8981   13.5990   -2.9867 H   0  0  0  0  0  0  0  0  0  0  0  0
    3.3264   11.1523   -3.6749 H   0  0  0  0  0  0  0  0  0  0  0  0
    3.6719   11.7353   -1.9628 H   0  0  0  0  0  0  0  0  0  0  0  0
    2.5328    9.3713   -2.1805 H   0  0  0  0  0  0  0  0  0  0  0  0
   -0.5760   11.9464   -2.1325 H   0  0  0  0  0  0  0  0  0  0  0  0
    0.4941   11.9845    0.7571 H   0  0  0  0  0  0  0  0  0  0  0  0
   -0.9054   12.9421    0.0978 H   0  0  0  0  0  0  0  0  0  0  0  0
   -1.6482   10.9808    1.4106 H   0  0  0  0  0  0  0  0  0  0  0  0
   -2.1446   10.8981   -0.3253 H   0  0  0  0  0  0  0  0  0  0  0  0
   -1.3741    8.7307    0.3597 H   0  0  0  0  0  0  0  0  0  0  0  0
    0.9560   10.2010    1.1890 H   0  0  0  0  0  0  0  0  0  0  0  0
   -2.0590    8.9418   -1.7068 H   0  0  0  0  0  0  0  0  0  0  0  0
   -1.1637    9.9996   -2.8497 H   0  0  0  0  0  0  0  0  0  0  0  0
   -0.8717    8.2272   -2.8497 H   0  0  0  0  0  0  0  0  0  0  0  0
    0.9822    7.6505   -0.0877 H   0  0  0  0  0  0  0  0  0  0  0  0
    0.2257    7.1652   -1.6429 H   0  0  0  0  0  0  0  0  0  0  0  0
    1.7753    8.0736   -1.6429 H   0  0  0  0  0  0  0  0  0  0  0  0
    1.5062   13.3039    0.3635 H   0  0  0  0  0  0  0  0  0  0  0  0
    2.9867   13.0123   -0.6111 H   0  0  0  0  0  0  0  0  0  0  0  0
    2.2166   14.6352   -0.6111 H   0  0  0  0  0  0  0  0  0  0  0  0
   -0.6643   14.2937   -1.4562 H   0  0  0  0  0  0  0  0  0  0  0  0
    0.8483   15.2500   -1.9379 H   0  0  0  0  0  0  0  0  0  0  0  0
   -1.0229   13.7097   -3.7580 H   0  0  0  0  0  0  0  0  0  0  0  0
   -0.7350   15.4927   -3.6830 H   0  0  0  0  0  0  0  0  0  0  0  0
    1.9925   15.6885   -3.2116 H   0  0  0  0  0  0  0  0  0  0  0  0
    2.8452   15.3068   -4.7458 H   0  0  0  0  0  0  0  0  0  0  0  0
    1.4710   16.4636   -4.7458 H   0  0  0  0  0  0  0  0  0  0  0  0
  1  2  1  0
  2  3  1  0
  3  4  1  0
  4  5  1  0
  5  6  1  0
  6  7  1  0
  7  8  1  0
  7  9  1  0
  2 10  1  0
 10 11  1  0
 11 12  1  0
 12 13  1  0
 13 14  1  6
 13 15  1  0
 15 16  1  0
 16 17  1  0
 17 18  2  0
 18 19  1  0
 19 20  1  0
 20 21  1  0
 21 22  1  0
 22 23  1  0
 22 24  1  0
 24 25  1  0
 24 26  1  0
 19 27  1  0
 27 28  1  1
 27 29  1  0
 29 30  1  0
 30 31  1  0
 31 32  1  6
  7  5  1  0
 31 10  1  0
 31 13  1  0
 27 15  1  0
 24 18  1  0
  1 33  1  0
  1 34  1  0
  1 35  1  0
  2 36  1  6
  3 37  1  0
  3 38  1  0
  4 39  1  0
  4 40  1  0
  5 41  1  1
  8 42  1  0
  8 43  1  0
  8 44  1  0
  9 45  1  0
  9 46  1  0
  9 47  1  0
 10 48  1  1
 11 49  1  0
 11 50  1  0
 12 51  1  0
 12 52  1  0
 14 53  1  0
 14 54  1  0
 14 55  1  0
 15 56  1  6
 16 57  1  0
 16 58  1  0
 17 59  1  0
 19 60  1  6
 20 61  1  0
 20 62  1  0
 21 63  1  0
 21 64  1  0
 22 65  1  1
 23 66  1  0
 25 67  1  0
 25 68  1  0
 25 69  1  0
 26 70  1  0
 26 71  1  0
 26 72  1  0
 28 73  1  0
 28 74  1  0
 28 75  1  0
 29 76  1  0
 29 77  1  0
 30 78  1  0
 30 79  1  0
 32 80  1  0
 32 81  1  0
 32 82  1  0
M  END
>  <meeko>  (10) 
{"is_sidechain": [false], "intermolecular_energy": 2.731, "internal_energy": -0.839}

$$$$
EPH_relaxed_0001_pdb2pqr_Repair_226_r2_0001_out
     RDKit          3D

 82 86  0  0  0  0  0  0  0  0999 V2000
   -4.0790    7.3880   -3.5460 C   0  0  0  0  0  0  0  0  0  0  0  0
   -3.6910    7.2890   -2.0680 C   0  0  2  0  0  0  0  0  0  0  0  0
   -4.8690    6.8230   -1.1880 C   0  0  0  0  0  0  0  0  0  0  0  0
   -6.0350    6.2310   -1.9840 C   0  0  0  0  0  0  0  0  0  0  0  0
   -7.3570    6.7260   -1.4810 C   0  0  2  0  0  0  0  0  0  0  0  0
   -8.3290    5.7000   -1.2420 O   0  0  0  0  0  0  0  0  0  0  0  0
   -8.6430    6.6390   -2.2830 C   0  0  0  0  0  0  0  0  0  0  0  0
   -8.6680    6.0410   -3.6540 C   0  0  0  0  0  0  0  0  0  0  0  0
   -9.7650    7.5680   -1.9390 C   0  0  0  0  0  0  0  0  0  0  0  0
   -3.1740    8.6350   -1.5760 C   0  0  1  0  0  0  0  0  0  0  0  0
   -3.8350    9.0790   -0.2430 C   0  0  0  0  0  0  0  0  0  0  0  0
   -2.7490    9.8350    0.5650 C   0  0  0  0  0  0  0  0  0  0  0  0
   -1.6130   10.0910   -0.4530 C   0  0  1  0  0  0  0  0  0  0  0  0
   -2.0700   11.3490   -1.2570 C   0  0  0  0  0  0  0  0  0  0  0  0
   -0.1800   10.2770    0.1430 C   0  0  2  0  0  0  0  0  0  0  0  0
   -0.0120   11.4910    1.0730 C   0  0  0  0  0  0  0  0  0  0  0  0
    0.4090   12.7560    0.4010 C   0  0  0  0  0  0  0  0  0  0  0  0
    0.9170   12.8500   -0.8420 C   0  0  0  0  0  0  0  0  0  0  0  0
    1.2050   11.5920   -1.6720 C   0  0  1  0  0  0  0  0  0  0  0  0
    2.6140   11.7060   -2.3120 C   0  0  0  0  0  0  0  0  0  0  0  0
    2.7880   12.9900   -3.1180 C   0  0  0  0  0  0  0  0  0  0  0  0
    2.5500   14.2190   -2.2450 C   0  0  2  0  0  0  0  0  0  0  0  0
    3.5890   14.2950   -1.2640 O   0  0  0  0  0  0  0  0  0  0  0  0
    1.1650   14.2100   -1.5390 C   0  0  0  0  0  0  0  0  0  0  0  0
    0.0460   14.4310   -2.5870 C   0  0  0  0  0  0  0  0  0  0  0  0
    1.1100   15.4310   -0.5810 C   0  0  0  0  0  0  0  0  0  0  0  0
    0.9830   10.2050   -0.9290 C   0  0  1  0  0  0  0  0  0  0  0  0
    2.2760    9.8020   -0.1570 C   0  0  0  0  0  0  0  0  0  0  0  0
    0.7370    9.0800   -2.0030 C   0  0  0  0  0  0  0  0  0  0  0  0
   -0.7170    8.8640   -2.4640 C   0  0  0  0  0  0  0  0  0  0  0  0
   -1.6600    8.7440   -1.2630 C   0  0  2  0  0  0  0  0  0  0  0  0
   -1.2380    7.4750   -0.4480 C   0  0  0  0  0  0  0  0  0  0  0  0
   -5.1418    7.6592   -3.6287 H   0  0  0  0  0  0  0  0  0  0  0  0
   -3.4649    8.1582   -4.0355 H   0  0  0  0  0  0  0  0  0  0  0  0
   -3.9090    6.4177   -4.0355 H   0  0  0  0  0  0  0  0  0  0  0  0
   -2.8971    6.5323   -1.9839 H   0  0  0  0  0  0  0  0  0  0  0  0
   -4.4997    6.0564   -0.4908 H   0  0  0  0  0  0  0  0  0  0  0  0
   -5.2536    7.7128   -0.6680 H   0  0  0  0  0  0  0  0  0  0  0  0
   -5.9263    6.5159   -3.0409 H   0  0  0  0  0  0  0  0  0  0  0  0
   -6.0107    5.1376   -1.8662 H   0  0  0  0  0  0  0  0  0  0  0  0
   -6.8708    7.5602   -0.9539 H   0  0  0  0  0  0  0  0  0  0  0  0
   -8.7138    4.9448   -3.5751 H   0  0  0  0  0  0  0  0  0  0  0  0
   -9.5516    6.4068   -4.1975 H   0  0  0  0  0  0  0  0  0  0  0  0
   -7.7569    6.3317   -4.1975 H   0  0  0  0  0  0  0  0  0  0  0  0
   -9.8563    7.6436   -0.8454 H   0  0  0  0  0  0  0  0  0  0  0  0
   -9.5589    8.5634   -2.3594 H   0  0  0  0  0  0  0  0  0  0  0  0
  -10.7045    7.1798   -2.3594 H   0  0  0  0  0  0  0  0  0  0  0  0
   -3.4243    9.2579   -2.4474 H   0  0  0  0  0  0  0  0  0  0  0  0
   -4.6875    9.7438   -0.4460 H   0  0  0  0  0  0  0  0  0  0  0  0
   -4.2128    8.2118    0.3185 H   0  0  0  0  0  0  0  0  0  0  0  0
   -3.1446   10.7854    0.9526 H   0  0  0  0  0  0  0  0  0  0  0  0
   -2.4049    9.2623    1.4389 H   0  0  0  0  0  0  0  0  0  0  0  0
   -2.3597   12.1464   -0.5568 H   0  0  0  0  0  0  0  0  0  0  0  0
   -1.2420   11.7001   -1.8903 H   0  0  0  0  0  0  0  0  0  0  0  0
   -2.9303   11.0868   -1.8903 H   0  0  0  0  0  0  0  0  0  0  0  0
   -0.0764    9.3911    0.7867 H   0  0  0  0  0  0  0  0  0  0  0  0
   -0.9762   11.6746    1.5697 H   0  0  0  0  0  0  0  0  0  0  0  0
    0.7996   11.2313    1.7686 H   0  0  0  0  0  0  0  0  0  0  0  0
    0.2943   13.6905    0.9699 H   0  0  0  0  0  0  0  0  0  0  0  0
    0.4377   11.5649   -2.4597 H   0  0  0  0  0  0  0  0  0  0  0  0
    3.3677   11.6875   -1.5110 H   0  0  0  0  0  0  0  0  0  0  0  0
    2.7367   10.8588   -3.0027 H   0  0  0  0  0  0  0  0  0  0  0  0
    3.8113   13.0267   -3.5200 H   0  0  0  0  0  0  0  0  0  0  0  0
    2.0528   12.9931   -3.9362 H   0  0  0  0  0  0  0  0  0  0  0  0
    2.5603   15.0994   -2.9044 H   0  0  0  0  0  0  0  0  0  0  0  0
    4.2630   13.6350   -1.4970 H   0  0  0  0  0  0  0  0  0  0  0  0
   -0.9073   14.6193   -2.0714 H   0  0  0  0  0  0  0  0  0  0  0  0
    0.2993   15.2965   -3.2169 H   0  0  0  0  0  0  0  0  0  0  0  0
   -0.0487   13.5342   -3.2169 H   0  0  0  0  0  0  0  0  0  0  0  0
    1.1258   15.0802    0.4614 H   0  0  0  0  0  0  0  0  0  0  0  0
    1.9799   16.0793   -0.7629 H   0  0  0  0  0  0  0  0  0  0  0  0
    0.1854   15.9984   -0.7629 H   0  0  0  0  0  0  0  0  0  0  0  0
    2.0898    9.8600    0.9256 H   0  0  0  0  0  0  0  0  0  0  0  0
    2.5580    8.7733   -0.4259 H   0  0  0  0  0  0  0  0  0  0  0  0
    3.0925   10.4883   -0.4259 H   0  0  0  0  0  0  0  0  0  0  0  0
    1.3336    9.3327   -2.8919 H   0  0  0  0  0  0  0  0  0  0  0  0
    1.0233    8.1412   -1.5064 H   0  0  0  0  0  0  0  0  0  0  0  0
   -1.0291    9.7182   -3.0828 H   0  0  0  0  0  0  0  0  0  0  0  0
   -0.7665    7.9305   -3.0438 H   0  0  0  0  0  0  0  0  0  0  0  0
   -1.3095    7.6900    0.6284 H   0  0  0  0  0  0  0  0  0  0  0  0
   -1.9063    6.6384   -0.7000 H   0  0  0  0  0  0  0  0  0  0  0  0
   -0.2018    7.2052   -0.7000 H   0  0  0  0  0  0  0  0  0  0  0  0
  1  2  1  0
  2  3  1  0
  3  4  1  0
  4  5  1  0
  5  6  1  0
  6  7  1  0
  7  8  1  0
  7  9  1  0
  2 10  1  0
 10 11  1  0
 11 12  1  0
 12 13  1  0
 13 14  1  6
 13 15  1  0
 15 16  1  0
 16 17  1  0
 17 18  2  0
 18 19  1  0
 19 20  1  0
 20 21  1  0
 21 22  1  0
 22 23  1  0
 22 24  1  0
 24 25  1  0
 24 26  1  0
 19 27  1  0
 27 28  1  1
 27 29  1  0
 29 30  1  0
 30 31  1  0
 31 32  1  1
  7  5  1  0
 31 10  1  0
 31 13  1  0
 27 15  1  0
 24 18  1  0
  1 33  1  0
  1 34  1  0
  1 35  1  0
  2 36  1  6
  3 37  1  0
  3 38  1  0
  4 39  1  0
  4 40  1  0
  5 41  1  1
  8 42  1  0
  8 43  1  0
  8 44  1  0
  9 45  1  0
  9 46  1  0
  9 47  1  0
 10 48  1  6
 11 49  1  0
 11 50  1  0
 12 51  1  0
 12 52  1  0
 14 53  1  0
 14 54  1  0
 14 55  1  0
 15 56  1  1
 16 57  1  0
 16 58  1  0
 17 59  1  0
 19 60  1  6
 20 61  1  0
 20 62  1  0
 21 63  1  0
 21 64  1  0
 22 65  1  6
 23 66  1  0
 25 67  1  0
 25 68  1  0
 25 69  1  0
 26 70  1  0
 26 71  1  0
 26 72  1  0
 28 73  1  0
 28 74  1  0
 28 75  1  0
 29 76  1  0
 29 77  1  0
 30 78  1  0
 30 79  1  0
 32 80  1  0
 32 81  1  0
 32 82  1  0
M  END
>  <meeko>  (11) 
{"is_sidechain": [false], "intermolecular_energy": 2.731, "internal_energy": -0.839}

$$$$
EPH_relaxed_0001_pdb2pqr_Repair_226_r2_0001_out
     RDKit          3D

 82 86  0  0  0  0  0  0  0  0999 V2000
    0.3320    9.2110   -1.9050 C   0  0  0  0  0  0  0  0  0  0  0  0
    1.2820   10.2560   -2.4970 C   0  0  2  0  0  0  0  0  0  0  0  0
    2.7170    9.7130   -2.6530 C   0  0  0  0  0  0  0  0  0  0  0  0
    3.5400   10.4460   -3.7160 C   0  0  0  0  0  0  0  0  0  0  0  0
    4.9500   10.6760   -3.2640 C   0  0  2  0  0  0  0  0  0  0  0  0
    5.5230   11.9170   -3.6980 O   0  0  0  0  0  0  0  0  0  0  0  0
    6.1350   10.7220   -4.2100 C   0  0  0  0  0  0  0  0  0  0  0  0
    5.9640   10.5340   -5.6850 C   0  0  0  0  0  0  0  0  0  0  0  0
    7.5020   10.4610   -3.6580 C   0  0  0  0  0  0  0  0  0  0  0  0
    1.2900   11.5050   -1.6240 C   0  0  1  0  0  0  0  0  0  0  0  0
    2.3650   11.4460   -0.5050 C   0  0  0  0  0  0  0  0  0  0  0  0
    2.8900   12.8910   -0.3130 C   0  0  0  0  0  0  0  0  0  0  0  0
    1.8810   13.7790   -1.0790 C   0  0  1  0  0  0  0  0  0  0  0  0
    0.6770   13.9520   -0.1010 C   0  0  0  0  0  0  0  0  0  0  0  0
    2.4170   15.1570   -1.5840 C   0  0  2  0  0  0  0  0  0  0  0  0
    2.8710   16.1260   -0.4780 C   0  0  0  0  0  0  0  0  0  0  0  0
    1.8130   17.0440    0.0380 C   0  0  0  0  0  0  0  0  0  0  0  0
    0.6310   17.2890   -0.5570 C   0  0  0  0  0  0  0  0  0  0  0  0
    0.3000   16.6870   -1.9290 C   0  0  1  0  0  0  0  0  0  0  0  0
   -0.2970   17.7860   -2.8460 C   0  0  0  0  0  0  0  0  0  0  0  0
   -1.4940   18.4890   -2.2140 C   0  0  0  0  0  0  0  0  0  0  0  0
   -1.1110   19.1250   -0.8800 C   0  0  2  0  0  0  0  0  0  0  0  0
   -0.1880   20.1900   -1.1260 O   0  0  0  0  0  0  0  0  0  0  0  0
   -0.4880   18.1150    0.1240 C   0  0  0  0  0  0  0  0  0  0  0  0
   -1.5800   17.1360    0.6220 C   0  0  0  0  0  0  0  0  0  0  0  0
   -0.0170   18.9100    1.3710 C   0  0  0  0  0  0  0  0  0  0  0  0
    1.4730   15.8760   -2.6310 C   0  0  1  0  0  0  0  0  0  0  0  0
    2.3750   16.8490   -3.4510 C   0  0  0  0  0  0  0  0  0  0  0  0
    0.8510   14.8670   -3.6680 C   0  0  0  0  0  0  0  0  0  0  0  0
    0.4510   13.4790   -3.1320 C   0  0  0  0  0  0  0  0  0  0  0  0
    1.5900   12.8570   -2.3190 C   0  0  2  0  0  0  0  0  0  0  0  0
    2.8080   12.6500   -3.2820 C   0  0  0  0  0  0  0  0  0  0  0  0
    0.3742    9.2575   -0.8068 H   0  0  0  0  0  0  0  0  0  0  0  0
   -0.6949    9.4166   -2.2415 H   0  0  0  0  0  0  0  0  0  0  0  0
    0.6343    8.2083   -2.2415 H   0  0  0  0  0  0  0  0  0  0  0  0
    0.9127   10.5076   -3.5021 H   0  0  0  0  0  0  0  0  0  0  0  0
    3.2324    9.8109   -1.6862 H   0  0  0  0  0  0  0  0  0  0  0  0
    2.6310    8.6658   -2.9785 H   0  0  0  0  0  0  0  0  0  0  0  0
    3.5543    9.8418   -4.6351 H   0  0  0  0  0  0  0  0  0  0  0  0
    3.0733   11.4258   -3.8957 H   0  0  0  0  0  0  0  0  0  0  0  0
    4.7687   10.1148   -2.3355 H   0  0  0  0  0  0  0  0  0  0  0  0
    5.2344    9.7319   -5.8702 H   0  0  0  0  0  0  0  0  0  0  0  0
    5.6015   11.4703   -6.1344 H   0  0  0  0  0  0  0  0  0  0  0  0
    6.9304   10.2616   -6.1344 H   0  0  0  0  0  0  0  0  0  0  0  0
    7.4612   10.4688   -2.5588 H   0  0  0  0  0  0  0  0  0  0  0  0
    7.8561    9.4790   -4.0048 H   0  0  0  0  0  0  0  0  0  0  0  0
    8.1930   11.2434   -4.0048 H   0  0  0  0  0  0  0  0  0  0  0  0
    0.2492   11.4874   -1.2685 H   0  0  0  0  0  0  0  0  0  0  0  0
    1.9183   11.0778    0.4304 H   0  0  0  0  0  0  0  0  0  0  0  0
    3.1820   10.7619   -0.7779 H   0  0  0  0  0  0  0  0  0  0  0  0
    2.9102   13.1581    0.7539 H   0  0  0  0  0  0  0  0  0  0  0  0
    3.9183   13.0135   -0.6839 H   0  0  0  0  0  0  0  0  0  0  0  0
    1.0374   13.9002    0.9370 H   0  0  0  0  0  0  0  0  0  0  0  0
    0.2003   14.9279   -0.2754 H   0  0  0  0  0  0  0  0  0  0  0  0
   -0.0552   13.1498   -0.2754 H   0  0  0  0  0  0  0  0  0  0  0  0
    3.3317   14.8703   -2.1236 H   0  0  0  0  0  0  0  0  0  0  0  0
    3.2435   15.5276    0.3665 H   0  0  0  0  0  0  0  0  0  0  0  0
    3.6378   16.7701   -0.9331 H   0  0  0  0  0  0  0  0  0  0  0  0
    2.0169   17.5646    0.9853 H   0  0  0  0  0  0  0  0  0  0  0  0
   -0.4522   15.9057   -1.7455 H   0  0  0  0  0  0  0  0  0  0  0  0
    0.4824   18.5342   -3.0529 H   0  0  0  0  0  0  0  0  0  0  0  0
   -0.6453   17.2981   -3.7683 H   0  0  0  0  0  0  0  0  0  0  0  0
   -1.8528   19.2732   -2.8969 H   0  0  0  0  0  0  0  0  0  0  0  0
   -2.2838   17.7447   -2.0344 H   0  0  0  0  0  0  0  0  0  0  0  0
   -2.0351   19.4992   -0.4153 H   0  0  0  0  0  0  0  0  0  0  0  0
   -0.5800   21.0070   -0.7720 H   0  0  0  0  0  0  0  0  0  0  0  0
   -1.5902   17.1268    1.7219 H   0  0  0  0  0  0  0  0  0  0  0  0
   -2.5622   17.4617    0.2489 H   0  0  0  0  0  0  0  0  0  0  0  0
   -1.3631   16.1242    0.2489 H   0  0  0  0  0  0  0  0  0  0  0  0
   -0.3304   18.3809    2.2830 H   0  0  0  0  0  0  0  0  0  0  0  0
    1.0793   18.9985    1.3569 H   0  0  0  0  0  0  0  0  0  0  0  0
   -0.4661   19.9141    1.3569 H   0  0  0  0  0  0  0  0  0  0  0  0
    2.9577   17.4776   -2.7616 H   0  0  0  0  0  0  0  0  0  0  0  0
    3.0604   16.2672   -4.0849 H   0  0  0  0  0  0  0  0  0  0  0  0
    1.7430   17.4884   -4.0849 H   0  0  0  0  0  0  0  0  0  0  0  0
   -0.0520   15.3349   -4.0871 H   0  0  0  0  0  0  0  0  0  0  0  0
    1.6511   14.6743   -4.3978 H   0  0  0  0  0  0  0  0  0  0  0  0
   -0.4352   13.5832   -2.4887 H   0  0  0  0  0  0  0  0  0  0  0  0
    0.2308   12.8227   -3.9869 H   0  0  0  0  0  0  0  0  0  0  0  0
    3.7217   12.4947   -2.6895 H   0  0  0  0  0  0  0  0  0  0  0  0
    2.6283   11.7695   -3.9164 H   0  0  0  0  0  0  0  0  0  0  0  0
    2.9293   13.5404   -3.9164 H   0  0  0  0  0  0  0  0  0  0  0  0
  1  2  1  0
  2  3  1  0
  3  4  1  0
  4  5  1  0
  5  6  1  0
  6  7  1  0
  7  8  1  0
  7  9  1  0
  2 10  1  0
 10 11  1  0
 11 12  1  0
 12 13  1  0
 13 14  1  1
 13 15  1  0
 15 16  1  0
 16 17  1  0
 17 18  2  0
 18 19  1  0
 19 20  1  0
 20 21  1  0
 21 22  1  0
 22 23  1  0
 22 24  1  0
 24 25  1  0
 24 26  1  0
 19 27  1  0
 27 28  1  6
 27 29  1  0
 29 30  1  0
 30 31  1  0
 31 32  1  6
  7  5  1  0
 31 10  1  0
 31 13  1  0
 27 15  1  0
 24 18  1  0
  1 33  1  0
  1 34  1  0
  1 35  1  0
  2 36  1  6
  3 37  1  0
  3 38  1  0
  4 39  1  0
  4 40  1  0
  5 41  1  1
  8 42  1  0
  8 43  1  0
  8 44  1  0
  9 45  1  0
  9 46  1  0
  9 47  1  0
 10 48  1  1
 11 49  1  0
 11 50  1  0
 12 51  1  0
 12 52  1  0
 14 53  1  0
 14 54  1  0
 14 55  1  0
 15 56  1  6
 16 57  1  0
 16 58  1  0
 17 59  1  0
 19 60  1  1
 20 61  1  0
 20 62  1  0
 21 63  1  0
 21 64  1  0
 22 65  1  1
 23 66  1  0
 25 67  1  0
 25 68  1  0
 25 69  1  0
 26 70  1  0
 26 71  1  0
 26 72  1  0
 28 73  1  0
 28 74  1  0
 28 75  1  0
 29 76  1  0
 29 77  1  0
 30 78  1  0
 30 79  1  0
 32 80  1  0
 32 81  1  0
 32 82  1  0
M  END
>  <meeko>  (12) 
{"is_sidechain": [false], "intermolecular_energy": 2.731, "internal_energy": -0.839}

$$$$
EPH_relaxed_0001_pdb2pqr_Repair_226_r2_0001_out
     RDKit          3D

 82 86  0  0  0  0  0  0  0  0999 V2000
   -2.1520    7.8140   -2.1680 C   0  0  0  0  0  0  0  0  0  0  0  0
   -2.1660    8.4430   -0.7720 C   0  0  2  0  0  0  0  0  0  0  0  0
   -3.5730    8.4260   -0.1410 C   0  0  0  0  0  0  0  0  0  0  0  0
   -4.6880    8.8170   -1.1150 C   0  0  0  0  0  0  0  0  0  0  0  0
   -5.8740    7.9080   -0.9940 C   0  0  2  0  0  0  0  0  0  0  0  0
   -5.5510    6.5300   -0.7690 O   0  0  0  0  0  0  0  0  0  0  0  0
   -6.2110    6.8320   -2.0090 C   0  0  0  0  0  0  0  0  0  0  0  0
   -5.3610    6.6090   -3.2200 C   0  0  0  0  0  0  0  0  0  0  0  0
   -7.6200    6.3310   -2.0800 C   0  0  0  0  0  0  0  0  0  0  0  0
   -1.6430    9.8720   -0.8410 C   0  0  1  0  0  0  0  0  0  0  0  0
   -1.1910   10.4110    0.5430 C   0  0  0  0  0  0  0  0  0  0  0  0
    0.0260   11.3360    0.2880 C   0  0  0  0  0  0  0  0  0  0  0  0
    0.0290   11.5640   -1.2420 C   0  0  1  0  0  0  0  0  0  0  0  0
   -1.0330   12.6830   -1.4830 C   0  0  0  0  0  0  0  0  0  0  0  0
    1.4070   11.9270   -1.8850 C   0  0  2  0  0  0  0  0  0  0  0  0
    2.0260   13.2490   -1.3960 C   0  0  0  0  0  0  0  0  0  0  0  0
    1.6550   14.4580   -2.1890 C   0  0  0  0  0  0  0  0  0  0  0  0
    1.0910   14.4500   -3.4110 C   0  0  0  0  0  0  0  0  0  0  0  0
    0.8600   13.1330   -4.1620 C   0  0  1  0  0  0  0  0  0  0  0  0
    1.3390   13.2830   -5.6300 C   0  0  0  0  0  0  0  0  0  0  0  0
    0.7020   14.4760   -6.3350 C   0  0  0  0  0  0  0  0  0  0  0  0
    1.0030   15.7740   -5.5890 C   0  0  2  0  0  0  0  0  0  0  0  0
    2.4060   16.0420   -5.6790 O   0  0  0  0  0  0  0  0  0  0  0  0
    0.5720   15.7380   -4.0960 C   0  0  0  0  0  0  0  0  0  0  0  0
   -0.9730   15.7500   -4.0000 C   0  0  0  0  0  0  0  0  0  0  0  0
    1.0600   17.0510   -3.4270 C   0  0  0  0  0  0  0  0  0  0  0  0
    1.4330   11.8260   -3.4640 C   0  0  1  0  0  0  0  0  0  0  0  0
    2.9240   11.6150   -3.8710 C   0  0  0  0  0  0  0  0  0  0  0  0
    0.6460   10.5700   -3.9950 C   0  0  0  0  0  0  0  0  0  0  0  0
   -0.6450   10.1910   -3.2450 C   0  0  0  0  0  0  0  0  0  0  0  0
   -0.4040   10.1340   -1.7330 C   0  0  2  0  0  0  0  0  0  0  0  0
    0.6430    9.0020   -1.4580 C   0  0  0  0  0  0  0  0  0  0  0  0
   -2.1276    6.7181   -2.0762 H   0  0  0  0  0  0  0  0  0  0  0  0
   -3.0571    8.1160   -2.7153 H   0  0  0  0  0  0  0  0  0  0  0  0
   -1.2612    8.1560   -2.7153 H   0  0  0  0  0  0  0  0  0  0  0  0
   -1.5095    7.8376   -0.1297 H   0  0  0  0  0  0  0  0  0  0  0  0
   -3.7755    7.4102    0.2293 H   0  0  0  0  0  0  0  0  0  0  0  0
   -3.5732    9.1739    0.6656 H   0  0  0  0  0  0  0  0  0  0  0  0
   -5.0053    9.8477   -0.8984 H   0  0  0  0  0  0  0  0  0  0  0  0
   -4.2943    8.7326   -2.1387 H   0  0  0  0  0  0  0  0  0  0  0  0
   -6.4748    8.7130   -0.5457 H   0  0  0  0  0  0  0  0  0  0  0  0
   -4.3408    6.3413   -2.9077 H   0  0  0  0  0  0  0  0  0  0  0  0
   -5.7866    5.7921   -3.8213 H   0  0  0  0  0  0  0  0  0  0  0  0
   -5.3307    7.5296   -3.8213 H   0  0  0  0  0  0  0  0  0  0  0  0
   -8.0114    6.1918   -1.0615 H   0  0  0  0  0  0  0  0  0  0  0  0
   -8.2428    7.0628   -2.6154 H   0  0  0  0  0  0  0  0  0  0  0  0
   -7.6410    5.3703   -2.6154 H   0  0  0  0  0  0  0  0  0  0  0  0
   -2.5262   10.3702   -1.2673 H   0  0  0  0  0  0  0  0  0  0  0  0
   -2.0070   10.9798    1.0127 H   0  0  0  0  0  0  0  0  0  0  0  0
   -0.9245    9.5859    1.2199 H   0  0  0  0  0  0  0  0  0  0  0  0
   -0.0926   12.2900    0.8226 H   0  0  0  0  0  0  0  0  0  0  0  0
    0.9678   10.8944    0.6458 H   0  0  0  0  0  0  0  0  0  0  0  0
   -1.3926   13.0619   -0.5149 H   0  0  0  0  0  0  0  0  0  0  0  0
   -0.5758   13.5060   -2.0519 H   0  0  0  0  0  0  0  0  0  0  0  0
   -1.8788   12.2694   -2.0519 H   0  0  0  0  0  0  0  0  0  0  0  0
    2.0626   11.1300   -1.5042 H   0  0  0  0  0  0  0  0  0  0  0  0
    1.7033   13.4117   -0.3570 H   0  0  0  0  0  0  0  0  0  0  0  0
    3.1145   13.1347   -1.5062 H   0  0  0  0  0  0  0  0  0  0  0  0
    1.8601   15.4392   -1.7360 H   0  0  0  0  0  0  0  0  0  0  0  0
   -0.2256   12.9573   -4.1393 H   0  0  0  0  0  0  0  0  0  0  0  0
    2.4312   13.4140   -5.6327 H   0  0  0  0  0  0  0  0  0  0  0  0
    1.0383   12.3750   -6.1733 H   0  0  0  0  0  0  0  0  0  0  0  0
    1.1029   14.5466   -7.3569 H   0  0  0  0  0  0  0  0  0  0  0  0
   -0.3879   14.3291   -6.3592 H   0  0  0  0  0  0  0  0  0  0  0  0
    0.4144   16.5721   -6.0650 H   0  0  0  0  0  0  0  0  0  0  0  0
    2.6900   16.4100   -4.8250 H   0  0  0  0  0  0  0  0  0  0  0  0
   -1.2746   15.7523   -2.9422 H   0  0  0  0  0  0  0  0  0  0  0  0
   -1.3641   16.6512   -4.4948 H   0  0  0  0  0  0  0  0  0  0  0  0
   -1.3781   14.8550   -4.4948 H   0  0  0  0  0  0  0  0  0  0  0  0
    1.0196   16.9422   -2.3331 H   0  0  0  0  0  0  0  0  0  0  0  0
    2.0950   17.2577   -3.7369 H   0  0  0  0  0  0  0  0  0  0  0  0
    0.4112   17.8835   -3.7369 H   0  0  0  0  0  0  0  0  0  0  0  0
    3.5424   11.5275   -2.9655 H   0  0  0  0  0  0  0  0  0  0  0  0
    3.0147   10.6951   -4.4673 H   0  0  0  0  0  0  0  0  0  0  0  0
    3.2664   12.4736   -4.4673 H   0  0  0  0  0  0  0  0  0  0  0  0
    0.3766   10.7650   -5.0435 H   0  0  0  0  0  0  0  0  0  0  0  0
    1.3267    9.7191   -3.8443 H   0  0  0  0  0  0  0  0  0  0  0  0
   -1.4189   10.9431   -3.4580 H   0  0  0  0  0  0  0  0  0  0  0  0
   -0.9700    9.1970   -3.5862 H   0  0  0  0  0  0  0  0  0  0  0  0
    0.7645    8.8707   -0.3726 H   0  0  0  0  0  0  0  0  0  0  0  0
    0.2906    8.0603   -1.9041 H   0  0  0  0  0  0  0  0  0  0  0  0
    1.6093    9.2800   -1.9041 H   0  0  0  0  0  0  0  0  0  0  0  0
  1  2  1  0
  2  3  1  0
  3  4  1  0
  4  5  1  0
  5  6  1  0
  6  7  1  0
  7  8  1  0
  7  9  1  0
  2 10  1  0
 10 11  1  0
 11 12  1  0
 12 13  1  0
 13 14  1  1
 13 15  1  0
 15 16  1  0
 16 17  1  0
 17 18  2  0
 18 19  1  0
 19 20  1  0
 20 21  1  0
 21 22  1  0
 22 23  1  0
 22 24  1  0
 24 25  1  0
 24 26  1  0
 19 27  1  0
 27 28  1  6
 27 29  1  0
 29 30  1  0
 30 31  1  0
 31 32  1  6
  7  5  1  0
 31 10  1  0
 31 13  1  0
 27 15  1  0
 24 18  1  0
  1 33  1  0
  1 34  1  0
  1 35  1  0
  2 36  1  1
  3 37  1  0
  3 38  1  0
  4 39  1  0
  4 40  1  0
  5 41  1  1
  8 42  1  0
  8 43  1  0
  8 44  1  0
  9 45  1  0
  9 46  1  0
  9 47  1  0
 10 48  1  6
 11 49  1  0
 11 50  1  0
 12 51  1  0
 12 52  1  0
 14 53  1  0
 14 54  1  0
 14 55  1  0
 15 56  1  1
 16 57  1  0
 16 58  1  0
 17 59  1  0
 19 60  1  6
 20 61  1  0
 20 62  1  0
 21 63  1  0
 21 64  1  0
 22 65  1  6
 23 66  1  0
 25 67  1  0
 25 68  1  0
 25 69  1  0
 26 70  1  0
 26 71  1  0
 26 72  1  0
 28 73  1  0
 28 74  1  0
 28 75  1  0
 29 76  1  0
 29 77  1  0
 30 78  1  0
 30 79  1  0
 32 80  1  0
 32 81  1  0
 32 82  1  0
M  END
>  <meeko>  (13) 
{"is_sidechain": [false], "intermolecular_energy": 2.731, "internal_energy": -0.839}

$$$$
EPH_relaxed_0001_pdb2pqr_Repair_226_r2_0001_out
     RDKit          3D

 82 86  0  0  0  0  0  0  0  0999 V2000
    0.3740   19.3080   -2.2960 C   0  0  0  0  0  0  0  0  0  0  0  0
    0.0720   18.2620   -1.2190 C   0  0  2  0  0  0  0  0  0  0  0  0
    0.7810   18.5800    0.1130 C   0  0  0  0  0  0  0  0  0  0  0  0
    1.5180   19.9220    0.1140 C   0  0  0  0  0  0  0  0  0  0  0  0
    2.9870   19.7490    0.3550 C   0  0  2  0  0  0  0  0  0  0  0  0
    3.3330   18.5990    1.1390 O   0  0  0  0  0  0  0  0  0  0  0  0
    3.6310   19.8780    1.7230 C   0  0  0  0  0  0  0  0  0  0  0  0
    2.8200   20.1940    2.9400 C   0  0  0  0  0  0  0  0  0  0  0  0
    5.0950   20.1800    1.7980 C   0  0  0  0  0  0  0  0  0  0  0  0
    0.4800   16.8780   -1.7090 C   0  0  1  0  0  0  0  0  0  0  0  0
    1.8190   16.8930   -2.4940 C   0  0  0  0  0  0  0  0  0  0  0  0
    2.5440   15.5610   -2.1670 C   0  0  0  0  0  0  0  0  0  0  0  0
    1.4660   14.6890   -1.4810 C   0  0  1  0  0  0  0  0  0  0  0  0
    0.6280   14.0910   -2.6540 C   0  0  0  0  0  0  0  0  0  0  0  0
    1.9900   13.5740   -0.5190 C   0  0  2  0  0  0  0  0  0  0  0  0
    2.8560   12.4910   -1.1850 C   0  0  0  0  0  0  0  0  0  0  0  0
    2.1100   11.3040   -1.7000 C   0  0  0  0  0  0  0  0  0  0  0  0
    0.8430   10.9790   -1.3820 C   0  0  0  0  0  0  0  0  0  0  0  0
    0.0590   11.7910   -0.3420 C   0  0  1  0  0  0  0  0  0  0  0  0
   -0.6470   10.8240    0.6450 C   0  0  0  0  0  0  0  0  0  0  0  0
   -1.5170    9.7930   -0.0680 C   0  0  0  0  0  0  0  0  0  0  0  0
   -0.6900    8.9670   -1.0510 C   0  0  2  0  0  0  0  0  0  0  0  0
    0.2400    8.1680   -0.3130 O   0  0  0  0  0  0  0  0  0  0  0  0
    0.0750    9.8350   -2.0880 C   0  0  0  0  0  0  0  0  0  0  0  0
   -0.9310   10.4660   -3.0820 C   0  0  0  0  0  0  0  0  0  0  0  0
    0.9790    8.8910   -2.9270 C   0  0  0  0  0  0  0  0  0  0  0  0
    0.8730   12.9350    0.4020 C   0  0  1  0  0  0  0  0  0  0  0  0
    1.6050   12.3440    1.6460 C   0  0  0  0  0  0  0  0  0  0  0  0
   -0.1370   14.0110    0.9510 C   0  0  0  0  0  0  0  0  0  0  0  0
   -0.5240   15.1540   -0.0070 C   0  0  0  0  0  0  0  0  0  0  0  0
    0.7210   15.7860   -0.6370 C   0  0  2  0  0  0  0  0  0  0  0  0
    1.5740   16.4160    0.5170 C   0  0  0  0  0  0  0  0  0  0  0  0
    0.6486   20.2592   -1.8166 H   0  0  0  0  0  0  0  0  0  0  0  0
    1.2081   18.9589   -2.9225 H   0  0  0  0  0  0  0  0  0  0  0  0
   -0.5177   19.4572   -2.9225 H   0  0  0  0  0  0  0  0  0  0  0  0
   -1.0115   18.2843   -1.0303 H   0  0  0  0  0  0  0  0  0  0  0  0
    0.0257   18.5982    0.9125 H   0  0  0  0  0  0  0  0  0  0  0  0
    1.5385   17.7976    0.2682 H   0  0  0  0  0  0  0  0  0  0  0  0
    1.3720   20.4093   -0.8613 H   0  0  0  0  0  0  0  0  0  0  0  0
    1.1077   20.5373    0.9283 H   0  0  0  0  0  0  0  0  0  0  0  0
    3.2248   20.2036   -0.6180 H   0  0  0  0  0  0  0  0  0  0  0  0
    3.4073   19.9652    3.8415 H   0  0  0  0  0  0  0  0  0  0  0  0
    2.5543   21.2614    2.9366 H   0  0  0  0  0  0  0  0  0  0  0  0
    1.9022   19.5877    2.9366 H   0  0  0  0  0  0  0  0  0  0  0  0
    5.4028   20.2435    2.8522 H   0  0  0  0  0  0  0  0  0  0  0  0
    5.6606   19.3796    1.2985 H   0  0  0  0  0  0  0  0  0  0  0  0
    5.2977   21.1389    1.2985 H   0  0  0  0  0  0  0  0  0  0  0  0
   -0.4068   16.6263   -2.3091 H   0  0  0  0  0  0  0  0  0  0  0  0
    1.6241   16.9629   -3.5743 H   0  0  0  0  0  0  0  0  0  0  0  0
    2.4348   17.7585   -2.2083 H   0  0  0  0  0  0  0  0  0  0  0  0
    2.9053   15.0793   -3.0875 H   0  0  0  0  0  0  0  0  0  0  0  0
    3.4270   15.7121   -1.5286 H   0  0  0  0  0  0  0  0  0  0  0  0
   -0.2034   13.4977   -2.2455 H   0  0  0  0  0  0  0  0  0  0  0  0
    0.2267   14.9080   -3.2716 H   0  0  0  0  0  0  0  0  0  0  0  0
    1.2701   13.4458   -3.2716 H   0  0  0  0  0  0  0  0  0  0  0  0
    2.6680   14.1334    0.1424 H   0  0  0  0  0  0  0  0  0  0  0  0
    3.3860   12.9526   -2.0312 H   0  0  0  0  0  0  0  0  0  0  0  0
    3.5258   12.1116   -0.3992 H   0  0  0  0  0  0  0  0  0  0  0  0
    2.6405   10.6395   -2.3978 H   0  0  0  0  0  0  0  0  0  0  0  0
   -0.6924   12.3628   -0.9064 H   0  0  0  0  0  0  0  0  0  0  0  0
    0.1200   10.2946    1.2294 H   0  0  0  0  0  0  0  0  0  0  0  0
   -1.3036   11.4261    1.2903 H   0  0  0  0  0  0  0  0  0  0  0  0
   -1.9646    9.1212    0.6792 H   0  0  0  0  0  0  0  0  0  0  0  0
   -2.3017   10.3228   -0.6280 H   0  0  0  0  0  0  0  0  0  0  0  0
   -1.3882    8.3380   -1.6227 H   0  0  0  0  0  0  0  0  0  0  0  0
    0.2030    7.2660   -0.6730 H   0  0  0  0  0  0  0  0  0  0  0  0
   -1.7331   10.9691   -2.5221 H   0  0  0  0  0  0  0  0  0  0  0  0
   -0.4100   11.1994   -3.7150 H   0  0  0  0  0  0  0  0  0  0  0  0
   -1.3645    9.6777   -3.7150 H   0  0  0  0  0  0  0  0  0  0  0  0
    1.5799    8.2635   -2.2523 H   0  0  0  0  0  0  0  0  0  0  0  0
    0.3500    8.2493   -3.5614 H   0  0  0  0  0  0  0  0  0  0  0  0
    1.6474    9.4916   -3.5614 H   0  0  0  0  0  0  0  0  0  0  0  0
    1.1335   12.7247    2.5640 H   0  0  0  0  0  0  0  0  0  0  0  0
    1.5347   11.2464    1.6257 H   0  0  0  0  0  0  0  0  0  0  0  0
    2.6631   12.6441    1.6257 H   0  0  0  0  0  0  0  0  0  0  0  0
   -1.0615   13.4860    1.2331 H   0  0  0  0  0  0  0  0  0  0  0  0
    0.3886   14.4999    1.7845 H   0  0  0  0  0  0  0  0  0  0  0  0
   -1.1669   14.7531   -0.8045 H   0  0  0  0  0  0  0  0  0  0  0  0
   -1.0580   15.9264    0.5659 H   0  0  0  0  0  0  0  0  0  0  0  0
    1.1593   16.1097    1.4887 H   0  0  0  0  0  0  0  0  0  0  0  0
    2.6143   16.0678    0.4361 H   0  0  0  0  0  0  0  0  0  0  0  0
    1.5471   17.5127    0.4361 H   0  0  0  0  0  0  0  0  0  0  0  0
  1  2  1  0
  2  3  1  0
  3  4  1  0
  4  5  1  0
  5  6  1  0
  6  7  1  0
  7  8  1  0
  7  9  1  0
  2 10  1  0
 10 11  1  0
 11 12  1  0
 12 13  1  0
 13 14  1  6
 13 15  1  0
 15 16  1  0
 16 17  1  0
 17 18  2  0
 18 19  1  0
 19 20  1  0
 20 21  1  0
 21 22  1  0
 22 23  1  0
 22 24  1  0
 24 25  1  0
 24 26  1  0
 19 27  1  0
 27 28  1  1
 27 29  1  0
 29 30  1  0
 30 31  1  0
 31 32  1  1
  7  5  1  0
 31 10  1  0
 31 13  1  0
 27 15  1  0
 24 18  1  0
  1 33  1  0
  1 34  1  0
  1 35  1  0
  2 36  1  1
  3 37  1  0
  3 38  1  0
  4 39  1  0
  4 40  1  0
  5 41  1  6
  8 42  1  0
  8 43  1  0
  8 44  1  0
  9 45  1  0
  9 46  1  0
  9 47  1  0
 10 48  1  6
 11 49  1  0
 11 50  1  0
 12 51  1  0
 12 52  1  0
 14 53  1  0
 14 54  1  0
 14 55  1  0
 15 56  1  1
 16 57  1  0
 16 58  1  0
 17 59  1  0
 19 60  1  6
 20 61  1  0
 20 62  1  0
 21 63  1  0
 21 64  1  0
 22 65  1  6
 23 66  1  0
 25 67  1  0
 25 68  1  0
 25 69  1  0
 26 70  1  0
 26 71  1  0
 26 72  1  0
 28 73  1  0
 28 74  1  0
 28 75  1  0
 29 76  1  0
 29 77  1  0
 30 78  1  0
 30 79  1  0
 32 80  1  0
 32 81  1  0
 32 82  1  0
M  END
>  <meeko>  (14) 
{"is_sidechain": [false], "intermolecular_energy": 2.731, "internal_energy": -0.839}

$$$$
EPH_relaxed_0001_pdb2pqr_Repair_226_r2_0001_out
     RDKit          3D

 82 86  0  0  0  0  0  0  0  0999 V2000
   -1.2530    6.8610   -3.0610 C   0  0  0  0  0  0  0  0  0  0  0  0
   -2.5150    7.3510   -2.3440 C   0  0  2  0  0  0  0  0  0  0  0  0
   -3.7480    7.3430   -3.2690 C   0  0  0  0  0  0  0  0  0  0  0  0
   -4.5760    6.0590   -3.1810 C   0  0  0  0  0  0  0  0  0  0  0  0
   -6.0470    6.3460   -3.1920 C   0  0  2  0  0  0  0  0  0  0  0  0
   -6.4000    7.6780   -2.8000 O   0  0  0  0  0  0  0  0  0  0  0  0
   -6.8560    6.6220   -1.9380 C   0  0  0  0  0  0  0  0  0  0  0  0
   -6.2190    6.6250   -0.5840 C   0  0  0  0  0  0  0  0  0  0  0  0
   -8.3360    6.4070   -1.9800 C   0  0  0  0  0  0  0  0  0  0  0  0
   -2.2870    8.7530   -1.7910 C   0  0  1  0  0  0  0  0  0  0  0  0
   -3.1940    9.0690   -0.5720 C   0  0  0  0  0  0  0  0  0  0  0  0
   -2.3650    9.9700    0.3800 C   0  0  0  0  0  0  0  0  0  0  0  0
   -1.1470   10.4130   -0.4640 C   0  0  1  0  0  0  0  0  0  0  0  0
   -1.6710   11.5980   -1.3340 C   0  0  0  0  0  0  0  0  0  0  0  0
    0.1390   10.8060    0.3330 C   0  0  2  0  0  0  0  0  0  0  0  0
   -0.0180   12.0170    1.2690 C   0  0  0  0  0  0  0  0  0  0  0  0
    0.2960   13.3420    0.6560 C   0  0  0  0  0  0  0  0  0  0  0  0
    0.9580   13.5310   -0.5000 C   0  0  0  0  0  0  0  0  0  0  0  0
    1.5530   12.3460   -1.2710 C   0  0  1  0  0  0  0  0  0  0  0  0
    3.0050   12.6830   -1.7000 C   0  0  0  0  0  0  0  0  0  0  0  0
    3.0960   13.9910   -2.4810 C   0  0  0  0  0  0  0  0  0  0  0  0
    2.5480   15.1550   -1.6600 C   0  0  2  0  0  0  0  0  0  0  0  0
    3.4100   15.3740   -0.5390 O   0  0  0  0  0  0  0  0  0  0  0  0
    1.0930   14.9240   -1.1630 C   0  0  0  0  0  0  0  0  0  0  0  0
    0.1170   14.9880   -2.3640 C   0  0  0  0  0  0  0  0  0  0  0  0
    0.7130   16.1070   -0.2320 C   0  0  0  0  0  0  0  0  0  0  0  0
    1.4410   10.9290   -0.5580 C   0  0  1  0  0  0  0  0  0  0  0  0
    2.6560   10.7170    0.3970 C   0  0  0  0  0  0  0  0  0  0  0  0
    1.5300    9.7970   -1.6480 C   0  0  0  0  0  0  0  0  0  0  0  0
    0.2080    9.3690   -2.3140 C   0  0  0  0  0  0  0  0  0  0  0  0
   -0.8690    9.0870   -1.2620 C   0  0  2  0  0  0  0  0  0  0  0  0
   -0.3800    7.8840   -0.3860 C   0  0  0  0  0  0  0  0  0  0  0  0
   -0.4985    6.5680   -2.3161 H   0  0  0  0  0  0  0  0  0  0  0  0
   -1.5023    5.9943   -3.6909 H   0  0  0  0  0  0  0  0  0  0  0  0
   -0.8521    7.6688   -3.6909 H   0  0  0  0  0  0  0  0  0  0  0  0
   -2.7183    6.6541   -1.5175 H   0  0  0  0  0  0  0  0  0  0  0  0
   -4.3927    8.1912   -2.9953 H   0  0  0  0  0  0  0  0  0  0  0  0
   -3.3752    7.4145   -4.3014 H   0  0  0  0  0  0  0  0  0  0  0  0
   -4.3315    5.4176   -4.0405 H   0  0  0  0  0  0  0  0  0  0  0  0
   -4.3316    5.5577   -2.2329 H   0  0  0  0  0  0  0  0  0  0  0  0
   -6.1998    5.6498   -4.0298 H   0  0  0  0  0  0  0  0  0  0  0  0
   -7.0013    6.6213    0.1893 H   0  0  0  0  0  0  0  0  0  0  0  0
   -5.5895    5.7298   -0.4730 H   0  0  0  0  0  0  0  0  0  0  0  0
   -5.5979    7.5261   -0.4730 H   0  0  0  0  0  0  0  0  0  0  0  0
   -8.7275    6.3501   -0.9536 H   0  0  0  0  0  0  0  0  0  0  0  0
   -8.8134    7.2452   -2.5086 H   0  0  0  0  0  0  0  0  0  0  0  0
   -8.5552    5.4676   -2.5086 H   0  0  0  0  0  0  0  0  0  0  0  0
   -2.5007    9.3444   -2.6935 H   0  0  0  0  0  0  0  0  0  0  0  0
   -4.1003    9.5984   -0.9012 H   0  0  0  0  0  0  0  0  0  0  0  0
   -3.5113    8.1455   -0.0655 H   0  0  0  0  0  0  0  0  0  0  0  0
   -2.9538   10.8424    0.6997 H   0  0  0  0  0  0  0  0  0  0  0  0
   -2.0666    9.4431    1.2983 H   0  0  0  0  0  0  0  0  0  0  0  0
   -2.0279   12.4051   -0.6774 H   0  0  0  0  0  0  0  0  0  0  0  0
   -0.8558   11.9753   -1.9689 H   0  0  0  0  0  0  0  0  0  0  0  0
   -2.4986   11.2488   -1.9689 H   0  0  0  0  0  0  0  0  0  0  0  0
    0.2835    9.9367    0.9914 H   0  0  0  0  0  0  0  0  0  0  0  0
   -1.0604   12.0430    1.6192 H   0  0  0  0  0  0  0  0  0  0  0  0
    0.7148   11.8742    2.0769 H   0  0  0  0  0  0  0  0  0  0  0  0
   -0.0425   14.2392    1.1950 H   0  0  0  0  0  0  0  0  0  0  0  0
    0.9216   12.2155   -2.1623 H   0  0  0  0  0  0  0  0  0  0  0  0
    3.6287   12.7669   -0.7978 H   0  0  0  0  0  0  0  0  0  0  0  0
    3.3541   11.8752   -2.3599 H   0  0  0  0  0  0  0  0  0  0  0  0
    4.1490   14.1897   -2.7292 H   0  0  0  0  0  0  0  0  0  0  0  0
    2.4965   13.8950   -3.3982 H   0  0  0  0  0  0  0  0  0  0  0  0
    2.5182   16.0367   -2.3171 H   0  0  0  0  0  0  0  0  0  0  0  0
    3.7480   14.5090   -0.2540 H   0  0  0  0  0  0  0  0  0  0  0  0
   -0.9165   15.0558   -1.9934 H   0  0  0  0  0  0  0  0  0  0  0  0
    0.3459   15.8731   -2.9758 H   0  0  0  0  0  0  0  0  0  0  0  0
    0.2284   14.0806   -2.9758 H   0  0  0  0  0  0  0  0  0  0  0  0
    0.8134   15.7943    0.8178 H   0  0  0  0  0  0  0  0  0  0  0  0
    1.3833   16.9571   -0.4271 H   0  0  0  0  0  0  0  0  0  0  0  0
   -0.3269   16.4077   -0.4271 H   0  0  0  0  0  0  0  0  0  0  0  0
    2.3161   10.7763    1.4415 H   0  0  0  0  0  0  0  0  0  0  0  0
    3.1000    9.7278    0.2115 H   0  0  0  0  0  0  0  0  0  0  0  0
    3.4087   11.4974    0.2115 H   0  0  0  0  0  0  0  0  0  0  0  0
    2.2032   10.1519   -2.4422 H   0  0  0  0  0  0  0  0  0  0  0  0
    1.8830    8.9053   -1.1091 H   0  0  0  0  0  0  0  0  0  0  0  0
   -0.1387   10.1755   -2.9769 H   0  0  0  0  0  0  0  0  0  0  0  0
    0.3866    8.4484   -2.8890 H   0  0  0  0  0  0  0  0  0  0  0  0
   -0.4839    8.1397    0.6788 H   0  0  0  0  0  0  0  0  0  0  0  0
   -0.9884    6.9956   -0.6108 H   0  0  0  0  0  0  0  0  0  0  0  0
    0.6757    7.6720   -0.6108 H   0  0  0  0  0  0  0  0  0  0  0  0
  1  2  1  0
  2  3  1  0
  3  4  1  0
  4  5  1  0
  5  6  1  0
  6  7  1  0
  7  8  1  0
  7  9  1  0
  2 10  1  0
 10 11  1  0
 11 12  1  0
 12 13  1  0
 13 14  1  6
 13 15  1  0
 15 16  1  0
 16 17  1  0
 17 18  2  0
 18 19  1  0
 19 20  1  0
 20 21  1  0
 21 22  1  0
 22 23  1  0
 22 24  1  0
 24 25  1  0
 24 26  1  0
 19 27  1  0
 27 28  1  1
 27 29  1  0
 29 30  1  0
 30 31  1  0
 31 32  1  1
  7  5  1  0
 31 10  1  0
 31 13  1  0
 27 15  1  0
 24 18  1  0
  1 33  1  0
  1 34  1  0
  1 35  1  0
  2 36  1  1
  3 37  1  0
  3 38  1  0
  4 39  1  0
  4 40  1  0
  5 41  1  6
  8 42  1  0
  8 43  1  0
  8 44  1  0
  9 45  1  0
  9 46  1  0
  9 47  1  0
 10 48  1  6
 11 49  1  0
 11 50  1  0
 12 51  1  0
 12 52  1  0
 14 53  1  0
 14 54  1  0
 14 55  1  0
 15 56  1  1
 16 57  1  0
 16 58  1  0
 17 59  1  0
 19 60  1  6
 20 61  1  0
 20 62  1  0
 21 63  1  0
 21 64  1  0
 22 65  1  6
 23 66  1  0
 25 67  1  0
 25 68  1  0
 25 69  1  0
 26 70  1  0
 26 71  1  0
 26 72  1  0
 28 73  1  0
 28 74  1  0
 28 75  1  0
 29 76  1  0
 29 77  1  0
 30 78  1  0
 30 79  1  0
 32 80  1  0
 32 81  1  0
 32 82  1  0
M  END
>  <meeko>  (15) 
{"is_sidechain": [false], "intermolecular_energy": 2.731, "internal_energy": -0.839}

$$$$
EPH_relaxed_0001_pdb2pqr_Repair_226_r2_0001_out
     RDKit          3D

 82 86  0  0  0  0  0  0  0  0999 V2000
    0.2750    9.9090   -4.6700 C   0  0  0  0  0  0  0  0  0  0  0  0
    1.3330   10.6230   -3.8240 C   0  0  2  0  0  0  0  0  0  0  0  0
    1.7620    9.7850   -2.6030 C   0  0  0  0  0  0  0  0  0  0  0  0
    0.7390    8.7210   -2.1970 C   0  0  0  0  0  0  0  0  0  0  0  0
   -0.1390    9.1950   -1.0790 C   0  0  2  0  0  0  0  0  0  0  0  0
   -0.6810    8.1500   -0.2590 O   0  0  0  0  0  0  0  0  0  0  0  0
   -1.6300    8.9220   -1.0130 C   0  0  0  0  0  0  0  0  0  0  0  0
   -2.3300    8.1470   -2.0860 C   0  0  0  0  0  0  0  0  0  0  0  0
   -2.4850    9.8160   -0.1700 C   0  0  0  0  0  0  0  0  0  0  0  0
    0.8060   11.9780   -3.3670 C   0  0  1  0  0  0  0  0  0  0  0  0
   -0.7030   11.9420   -3.0080 C   0  0  0  0  0  0  0  0  0  0  0  0
   -0.9050   12.9240   -1.8260 C   0  0  0  0  0  0  0  0  0  0  0  0
    0.4110   13.7330   -1.7610 C   0  0  1  0  0  0  0  0  0  0  0  0
    0.2630   14.8300   -2.8620 C   0  0  0  0  0  0  0  0  0  0  0  0
    0.7730   14.3550   -0.3730 C   0  0  2  0  0  0  0  0  0  0  0  0
   -0.2290   15.3940    0.1580 C   0  0  0  0  0  0  0  0  0  0  0  0
    0.0500   16.8070   -0.2320 C   0  0  0  0  0  0  0  0  0  0  0  0
    1.2110   17.2650   -0.7360 C   0  0  0  0  0  0  0  0  0  0  0  0
    2.4300   16.3420   -0.8680 C   0  0  1  0  0  0  0  0  0  0  0  0
    3.6900   17.0680   -0.3270 C   0  0  0  0  0  0  0  0  0  0  0  0
    3.9110   18.4260   -0.9870 C   0  0  0  0  0  0  0  0  0  0  0  0
    2.7020   19.3340   -0.7840 C   0  0  2  0  0  0  0  0  0  0  0  0
    2.5920   19.6520    0.6070 O   0  0  0  0  0  0  0  0  0  0  0  0
    1.3720   18.7050   -1.2830 C   0  0  0  0  0  0  0  0  0  0  0  0
    1.3750   18.6390   -2.8300 C   0  0  0  0  0  0  0  0  0  0  0  0
    0.2140   19.6620   -0.8910 C   0  0  0  0  0  0  0  0  0  0  0  0
    2.2620   14.8810   -0.2670 C   0  0  1  0  0  0  0  0  0  0  0  0
    2.6260   14.8850    1.2500 C   0  0  0  0  0  0  0  0  0  0  0  0
    3.2890   13.9150   -0.9670 C   0  0  0  0  0  0  0  0  0  0  0  0
    2.8280   13.2390   -2.2730 C   0  0  0  0  0  0  0  0  0  0  0  0
    1.4470   12.6000   -2.1010 C   0  0  2  0  0  0  0  0  0  0  0  0
    1.5700   11.4780   -1.0150 C   0  0  0  0  0  0  0  0  0  0  0  0
   -0.4533    9.4175   -4.0081 H   0  0  0  0  0  0  0  0  0  0  0  0
   -0.2433   10.6428   -5.3048 H   0  0  0  0  0  0  0  0  0  0  0  0
    0.7615    9.1538   -5.3048 H   0  0  0  0  0  0  0  0  0  0  0  0
    2.2220   10.7645   -4.4562 H   0  0  0  0  0  0  0  0  0  0  0  0
    2.7101    9.2815   -2.8431 H   0  0  0  0  0  0  0  0  0  0  0  0
    1.8583   10.4787   -1.7547 H   0  0  0  0  0  0  0  0  0  0  0  0
    0.1101    8.4807   -3.0669 H   0  0  0  0  0  0  0  0  0  0  0  0
    1.2872    7.8328   -1.8498 H   0  0  0  0  0  0  0  0  0  0  0  0
    0.4466   10.1209   -0.9800 H   0  0  0  0  0  0  0  0  0  0  0  0
   -2.9996    7.4057   -1.6254 H   0  0  0  0  0  0  0  0  0  0  0  0
   -2.9189    8.8350   -2.7104 H   0  0  0  0  0  0  0  0  0  0  0  0
   -1.5858    7.6310   -2.7104 H   0  0  0  0  0  0  0  0  0  0  0  0
   -2.2908    9.6129    0.8935 H   0  0  0  0  0  0  0  0  0  0  0  0
   -2.2472   10.8668   -0.3920 H   0  0  0  0  0  0  0  0  0  0  0  0
   -3.5453    9.6252   -0.3920 H   0  0  0  0  0  0  0  0  0  0  0  0
    1.0577   12.5816   -4.2515 H   0  0  0  0  0  0  0  0  0  0  0  0
   -1.3055   12.2598   -3.8717 H   0  0  0  0  0  0  0  0  0  0  0  0
   -1.0198   10.9247   -2.7348 H   0  0  0  0  0  0  0  0  0  0  0  0
   -1.7605   13.5889   -2.0156 H   0  0  0  0  0  0  0  0  0  0  0  0
   -1.1203   12.4017   -0.8822 H   0  0  0  0  0  0  0  0  0  0  0  0
    0.1305   15.8124   -2.3853 H   0  0  0  0  0  0  0  0  0  0  0  0
    1.1672   14.8453   -3.4882 H   0  0  0  0  0  0  0  0  0  0  0  0
   -0.6129   14.6052   -3.4882 H   0  0  0  0  0  0  0  0  0  0  0  0
    0.6911   13.4898    0.3014 H   0  0  0  0  0  0  0  0  0  0  0  0
   -1.2270   15.1278   -0.2204 H   0  0  0  0  0  0  0  0  0  0  0  0
   -0.1496   15.3600    1.2546 H   0  0  0  0  0  0  0  0  0  0  0  0
   -0.7622   17.5363   -0.0961 H   0  0  0  0  0  0  0  0  0  0  0  0
    2.5464   16.1439   -1.9437 H   0  0  0  0  0  0  0  0  0  0  0  0
    3.5730   17.2173    0.7565 H   0  0  0  0  0  0  0  0  0  0  0  0
    4.5626   16.4389   -0.5569 H   0  0  0  0  0  0  0  0  0  0  0  0
    4.7975   18.9022   -0.5427 H   0  0  0  0  0  0  0  0  0  0  0  0
    4.0573   18.2722   -2.0663 H   0  0  0  0  0  0  0  0  0  0  0  0
    2.8655   20.2396   -1.3867 H   0  0  0  0  0  0  0  0  0  0  0  0
    2.0400   18.9670    1.0220 H   0  0  0  0  0  0  0  0  0  0  0  0
    1.4228   17.5883   -3.1521 H   0  0  0  0  0  0  0  0  0  0  0  0
    0.4550   19.1001   -3.2185 H   0  0  0  0  0  0  0  0  0  0  0  0
    2.2494   19.1817   -3.2185 H   0  0  0  0  0  0  0  0  0  0  0  0
    0.1424   19.7212    0.2051 H   0  0  0  0  0  0  0  0  0  0  0  0
    0.4117   20.6637   -1.3002 H   0  0  0  0  0  0  0  0  0  0  0  0
   -0.7326   19.2791   -1.3002 H   0  0  0  0  0  0  0  0  0  0  0  0
    1.7031   14.8749    1.8485 H   0  0  0  0  0  0  0  0  0  0  0  0
    3.2256   13.9934    1.4856 H   0  0  0  0  0  0  0  0  0  0  0  0
    3.2059   15.7896    1.4856 H   0  0  0  0  0  0  0  0  0  0  0  0
    4.1926   14.4991   -1.1956 H   0  0  0  0  0  0  0  0  0  0  0  0
    3.4408   13.0909   -0.2544 H   0  0  0  0  0  0  0  0  0  0  0  0
    2.7782   13.9943   -3.0711 H   0  0  0  0  0  0  0  0  0  0  0  0
    3.5495   12.4506   -2.5337 H   0  0  0  0  0  0  0  0  0  0  0  0
    1.5204   11.9301   -0.0134 H   0  0  0  0  0  0  0  0  0  0  0  0
    0.7452   10.7601   -1.1344 H   0  0  0  0  0  0  0  0  0  0  0  0
    2.5308   10.9558   -1.1344 H   0  0  0  0  0  0  0  0  0  0  0  0
  1  2  1  0
  2  3  1  0
  3  4  1  0
  4  5  1  0
  5  6  1  0
  6  7  1  0
  7  8  1  0
  7  9  1  0
  2 10  1  0
 10 11  1  0
 11 12  1  0
 12 13  1  0
 13 14  1  6
 13 15  1  0
 15 16  1  0
 16 17  1  0
 17 18  2  0
 18 19  1  0
 19 20  1  0
 20 21  1  0
 21 22  1  0
 22 23  1  0
 22 24  1  0
 24 25  1  0
 24 26  1  0
 19 27  1  0
 27 28  1  1
 27 29  1  0
 29 30  1  0
 30 31  1  0
 31 32  1  1
  7  5  1  0
 31 10  1  0
 31 13  1  0
 27 15  1  0
 24 18  1  0
  1 33  1  0
  1 34  1  0
  1 35  1  0
  2 36  1  6
  3 37  1  0
  3 38  1  0
  4 39  1  0
  4 40  1  0
  5 41  1  1
  8 42  1  0
  8 43  1  0
  8 44  1  0
  9 45  1  0
  9 46  1  0
  9 47  1  0
 10 48  1  6
 11 49  1  0
 11 50  1  0
 12 51  1  0
 12 52  1  0
 14 53  1  0
 14 54  1  0
 14 55  1  0
 15 56  1  1
 16 57  1  0
 16 58  1  0
 17 59  1  0
 19 60  1  6
 20 61  1  0
 20 62  1  0
 21 63  1  0
 21 64  1  0
 22 65  1  6
 23 66  1  0
 25 67  1  0
 25 68  1  0
 25 69  1  0
 26 70  1  0
 26 71  1  0
 26 72  1  0
 28 73  1  0
 28 74  1  0
 28 75  1  0
 29 76  1  0
 29 77  1  0
 30 78  1  0
 30 79  1  0
 32 80  1  0
 32 81  1  0
 32 82  1  0
M  END
>  <meeko>  (16) 
{"is_sidechain": [false], "intermolecular_energy": 2.731, "internal_energy": -0.839}

$$$$
EPH_relaxed_0001_pdb2pqr_Repair_226_r2_0001_out
     RDKit          3D

 82 86  0  0  0  0  0  0  0  0999 V2000
   -0.0890    9.3160   -4.1840 C   0  0  0  0  0  0  0  0  0  0  0  0
    0.1000    9.5370   -2.6810 C   0  0  2  0  0  0  0  0  0  0  0  0
   -0.6760    8.5030   -1.8400 C   0  0  0  0  0  0  0  0  0  0  0  0
   -2.1930    8.5650   -2.0340 C   0  0  0  0  0  0  0  0  0  0  0  0
   -2.7230    7.3110   -2.6610 C   0  0  2  0  0  0  0  0  0  0  0  0
   -3.7610    7.5170   -3.6280 O   0  0  0  0  0  0  0  0  0  0  0  0
   -4.1340    6.7980   -2.4420 C   0  0  0  0  0  0  0  0  0  0  0  0
   -5.1030    7.5290   -1.5660 C   0  0  0  0  0  0  0  0  0  0  0  0
   -4.4130    5.3470   -2.6790 C   0  0  0  0  0  0  0  0  0  0  0  0
   -0.3370   10.9480   -2.3030 C   0  0  1  0  0  0  0  0  0  0  0  0
   -1.5640   10.9600   -1.3540 C   0  0  0  0  0  0  0  0  0  0  0  0
   -1.3760   12.1640   -0.3950 C   0  0  0  0  0  0  0  0  0  0  0  0
   -0.2340   12.9920   -1.0290 C   0  0  1  0  0  0  0  0  0  0  0  0
   -0.9220   13.8320   -2.1510 C   0  0  0  0  0  0  0  0  0  0  0  0
    0.5870   13.8970   -0.0530 C   0  0  2  0  0  0  0  0  0  0  0  0
   -0.2210   15.0050    0.6440 C   0  0  0  0  0  0  0  0  0  0  0  0
   -0.2670   16.3110   -0.0780 C   0  0  0  0  0  0  0  0  0  0  0  0
    0.5420   16.6740   -1.0910 C   0  0  0  0  0  0  0  0  0  0  0  0
    1.6940   15.7670   -1.5420 C   0  0  1  0  0  0  0  0  0  0  0  0
    2.9830   16.6130   -1.7120 C   0  0  0  0  0  0  0  0  0  0  0  0
    2.7820   17.8060   -2.6400 C   0  0  0  0  0  0  0  0  0  0  0  0
    1.6680   18.7150   -2.1270 C   0  0  2  0  0  0  0  0  0  0  0  0
    2.0910   19.3140   -0.8980 O   0  0  0  0  0  0  0  0  0  0  0  0
    0.3210   17.9700   -1.9080 C   0  0  0  0  0  0  0  0  0  0  0  0
   -0.2880   17.5830   -3.2790 C   0  0  0  0  0  0  0  0  0  0  0  0
   -0.6750   18.9670   -1.2570 C   0  0  0  0  0  0  0  0  0  0  0  0
    1.9310   14.4610   -0.6680 C   0  0  1  0  0  0  0  0  0  0  0  0
    2.8680   14.7880    0.5340 C   0  0  0  0  0  0  0  0  0  0  0  0
    2.6860   13.3890   -1.5400 C   0  0  0  0  0  0  0  0  0  0  0  0
    1.8140   12.4460   -2.3920 C   0  0  0  0  0  0  0  0  0  0  0  0
    0.6890   11.8330   -1.5520 C   0  0  2  0  0  0  0  0  0  0  0  0
    1.3510   10.9640   -0.4280 C   0  0  0  0  0  0  0  0  0  0  0  0
   -0.7960    8.4892   -4.3470 H   0  0  0  0  0  0  0  0  0  0  0  0
   -0.4860   10.2337   -4.6425 H   0  0  0  0  0  0  0  0  0  0  0  0
    0.8792    9.0662   -4.6425 H   0  0  0  0  0  0  0  0  0  0  0  0
    1.1698    9.4074   -2.4601 H   0  0  0  0  0  0  0  0  0  0  0  0
   -0.3308    7.4972   -2.1215 H   0  0  0  0  0  0  0  0  0  0  0  0
   -0.4776    8.7347   -0.7831 H   0  0  0  0  0  0  0  0  0  0  0  0
   -2.6724    8.7037   -1.0537 H   0  0  0  0  0  0  0  0  0  0  0  0
   -2.4189    9.4064   -2.7056 H   0  0  0  0  0  0  0  0  0  0  0  0
   -1.7396    6.8254   -2.5764 H   0  0  0  0  0  0  0  0  0  0  0  0
   -4.8558    7.3425   -0.5105 H   0  0  0  0  0  0  0  0  0  0  0  0
   -5.0417    8.6078   -1.7719 H   0  0  0  0  0  0  0  0  0  0  0  0
   -6.1235    7.1738   -1.7719 H   0  0  0  0  0  0  0  0  0  0  0  0
   -4.5124    4.8302   -1.7131 H   0  0  0  0  0  0  0  0  0  0  0  0
   -5.3478    5.2417   -3.2491 H   0  0  0  0  0  0  0  0  0  0  0  0
   -3.5839    4.9025   -3.2491 H   0  0  0  0  0  0  0  0  0  0  0  0
   -0.5238   11.3577   -3.3066 H   0  0  0  0  0  0  0  0  0  0  0  0
   -2.4907   11.0792   -1.9345 H   0  0  0  0  0  0  0  0  0  0  0  0
   -1.6390   10.0165   -0.7935 H   0  0  0  0  0  0  0  0  0  0  0  0
   -2.2991   12.7591   -0.3330 H   0  0  0  0  0  0  0  0  0  0  0  0
   -1.1415   11.8471    0.6319 H   0  0  0  0  0  0  0  0  0  0  0  0
   -1.5558   14.6058   -1.6933 H   0  0  0  0  0  0  0  0  0  0  0  0
   -0.1526   14.3101   -2.7751 H   0  0  0  0  0  0  0  0  0  0  0  0
   -1.5423   13.1719   -2.7751 H   0  0  0  0  0  0  0  0  0  0  0  0
    0.8716   13.1907    0.7408 H   0  0  0  0  0  0  0  0  0  0  0  0
   -1.2541   14.6472    0.7654 H   0  0  0  0  0  0  0  0  0  0  0  0
    0.2919   15.2020    1.5970 H   0  0  0  0  0  0  0  0  0  0  0  0
   -1.0263   17.0383    0.2452 H   0  0  0  0  0  0  0  0  0  0  0  0
    1.3908   15.3503   -2.5138 H   0  0  0  0  0  0  0  0  0  0  0  0
    3.2944   16.9834   -0.7241 H   0  0  0  0  0  0  0  0  0  0  0  0
    3.7500   15.9656   -2.1622 H   0  0  0  0  0  0  0  0  0  0  0  0
    3.7184   18.3805   -2.6957 H   0  0  0  0  0  0  0  0  0  0  0  0
    2.4999   17.4327   -3.6355 H   0  0  0  0  0  0  0  0  0  0  0  0
    1.4833   19.4774   -2.8981 H   0  0  0  0  0  0  0  0  0  0  0  0
    3.0630   19.3440   -0.9050 H   0  0  0  0  0  0  0  0  0  0  0  0
   -1.2067   16.9992   -3.1205 H   0  0  0  0  0  0  0  0  0  0  0  0
   -0.5265   18.4956   -3.8450 H   0  0  0  0  0  0  0  0  0  0  0  0
    0.4369   16.9795   -3.8450 H   0  0  0  0  0  0  0  0  0  0  0  0
   -0.6029   18.8948   -0.1617 H   0  0  0  0  0  0  0  0  0  0  0  0
   -0.4285   19.9911   -1.5740 H   0  0  0  0  0  0  0  0  0  0  0  0
   -1.6993   18.7216   -1.5740 H   0  0  0  0  0  0  0  0  0  0  0  0
    2.3333   14.6014    1.4770 H   0  0  0  0  0  0  0  0  0  0  0  0
    3.7619   14.1487    0.4866 H   0  0  0  0  0  0  0  0  0  0  0  0
    3.1700   15.8447    0.4866 H   0  0  0  0  0  0  0  0  0  0  0  0
    3.3575   13.9293   -2.2235 H   0  0  0  0  0  0  0  0  0  0  0  0
    3.1936   12.7350   -0.8157 H   0  0  0  0  0  0  0  0  0  0  0  0
    1.3732   13.0161   -3.2231 H   0  0  0  0  0  0  0  0  0  0  0  0
    2.4478   11.6334   -2.7767 H   0  0  0  0  0  0  0  0  0  0  0  0
    1.0552   11.3523    0.5578 H   0  0  0  0  0  0  0  0  0  0  0  0
    1.0168    9.9206   -0.5265 H   0  0  0  0  0  0  0  0  0  0  0  0
    2.4457   11.0092   -0.5265 H   0  0  0  0  0  0  0  0  0  0  0  0
  1  2  1  0
  2  3  1  0
  3  4  1  0
  4  5  1  0
  5  6  1  0
  6  7  1  0
  7  8  1  0
  7  9  1  0
  2 10  1  0
 10 11  1  0
 11 12  1  0
 12 13  1  0
 13 14  1  6
 13 15  1  0
 15 16  1  0
 16 17  1  0
 17 18  2  0
 18 19  1  0
 19 20  1  0
 20 21  1  0
 21 22  1  0
 22 23  1  0
 22 24  1  0
 24 25  1  0
 24 26  1  0
 19 27  1  0
 27 28  1  1
 27 29  1  0
 29 30  1  0
 30 31  1  0
 31 32  1  1
  7  5  1  0
 31 10  1  0
 31 13  1  0
 27 15  1  0
 24 18  1  0
  1 33  1  0
  1 34  1  0
  1 35  1  0
  2 36  1  6
  3 37  1  0
  3 38  1  0
  4 39  1  0
  4 40  1  0
  5 41  1  6
  8 42  1  0
  8 43  1  0
  8 44  1  0
  9 45  1  0
  9 46  1  0
  9 47  1  0
 10 48  1  6
 11 49  1  0
 11 50  1  0
 12 51  1  0
 12 52  1  0
 14 53  1  0
 14 54  1  0
 14 55  1  0
 15 56  1  1
 16 57  1  0
 16 58  1  0
 17 59  1  0
 19 60  1  6
 20 61  1  0
 20 62  1  0
 21 63  1  0
 21 64  1  0
 22 65  1  6
 23 66  1  0
 25 67  1  0
 25 68  1  0
 25 69  1  0
 26 70  1  0
 26 71  1  0
 26 72  1  0
 28 73  1  0
 28 74  1  0
 28 75  1  0
 29 76  1  0
 29 77  1  0
 30 78  1  0
 30 79  1  0
 32 80  1  0
 32 81  1  0
 32 82  1  0
M  END
>  <meeko>  (17) 
{"is_sidechain": [false], "intermolecular_energy": 2.731, "internal_energy": -0.839}

$$$$
EPH_relaxed_0001_pdb2pqr_Repair_226_r2_0001_out
     RDKit          3D

 82 86  0  0  0  0  0  0  0  0999 V2000
    0.9510   14.9630   -2.6670 C   0  0  0  0  0  0  0  0  0  0  0  0
    1.1900   14.2930   -4.0230 C   0  0  2  0  0  0  0  0  0  0  0  0
    0.4600   15.0230   -5.1690 C   0  0  0  0  0  0  0  0  0  0  0  0
    0.9420   14.6160   -6.5640 C   0  0  0  0  0  0  0  0  0  0  0  0
    0.7370   15.7140   -7.5630 C   0  0  2  0  0  0  0  0  0  0  0  0
    0.4140   15.2670   -8.8860 O   0  0  0  0  0  0  0  0  0  0  0  0
    1.6640   15.9590   -8.7390 C   0  0  0  0  0  0  0  0  0  0  0  0
    2.8670   15.1000   -8.9760 C   0  0  0  0  0  0  0  0  0  0  0  0
    1.6790   17.3170   -9.3680 C   0  0  0  0  0  0  0  0  0  0  0  0
    0.7460   12.8360   -3.9680 C   0  0  1  0  0  0  0  0  0  0  0  0
    1.8740   11.8520   -4.3760 C   0  0  0  0  0  0  0  0  0  0  0  0
    1.6960   10.5810   -3.5060 C   0  0  0  0  0  0  0  0  0  0  0  0
    0.2930   10.7360   -2.8720 C   0  0  1  0  0  0  0  0  0  0  0  0
   -0.7010   10.2690   -3.9810 C   0  0  0  0  0  0  0  0  0  0  0  0
    0.0550    9.9770   -1.5260 C   0  0  2  0  0  0  0  0  0  0  0  0
    0.1640    8.4450   -1.6130 C   0  0  0  0  0  0  0  0  0  0  0  0
   -1.1110    7.7310   -1.9160 C   0  0  0  0  0  0  0  0  0  0  0  0
   -2.3450    8.2630   -1.8310 C   0  0  0  0  0  0  0  0  0  0  0  0
   -2.5530    9.6870   -1.2990 C   0  0  1  0  0  0  0  0  0  0  0  0
   -3.7140    9.6900   -0.2700 C   0  0  0  0  0  0  0  0  0  0  0  0
   -4.9960    9.0840   -0.8330 C   0  0  0  0  0  0  0  0  0  0  0  0
   -4.7630    7.6490   -1.2970 C   0  0  2  0  0  0  0  0  0  0  0  0
   -4.4800    6.8340   -0.1550 O   0  0  0  0  0  0  0  0  0  0  0  0
   -3.6080    7.5190   -2.3300 C   0  0  0  0  0  0  0  0  0  0  0  0
   -4.0420    8.1480   -3.6770 C   0  0  0  0  0  0  0  0  0  0  0  0
   -3.3840    6.0080   -2.6080 C   0  0  0  0  0  0  0  0  0  0  0  0
   -1.2530   10.4210   -0.7540 C   0  0  1  0  0  0  0  0  0  0  0  0
   -1.0280   10.0610    0.7460 C   0  0  0  0  0  0  0  0  0  0  0  0
   -1.4810   11.9780   -0.8090 C   0  0  0  0  0  0  0  0  0  0  0  0
   -1.1150   12.6880   -2.1260 C   0  0  0  0  0  0  0  0  0  0  0  0
    0.2860   12.2840   -2.5960 C   0  0  2  0  0  0  0  0  0  0  0  0
    1.3110   12.7600   -1.5110 C   0  0  0  0  0  0  0  0  0  0  0  0
    1.2023   14.2584   -1.8605 H   0  0  0  0  0  0  0  0  0  0  0  0
    1.5854   15.8577   -2.5832 H   0  0  0  0  0  0  0  0  0  0  0  0
   -0.1064   15.2542   -2.5832 H   0  0  0  0  0  0  0  0  0  0  0  0
    2.2686   14.3459   -4.2323 H   0  0  0  0  0  0  0  0  0  0  0  0
   -0.6145   14.7998   -5.0941 H   0  0  0  0  0  0  0  0  0  0  0  0
    0.6749   16.0958   -5.0551 H   0  0  0  0  0  0  0  0  0  0  0  0
    2.0140   14.3746   -6.5145 H   0  0  0  0  0  0  0  0  0  0  0  0
    0.3562   13.7433   -6.8883 H   0  0  0  0  0  0  0  0  0  0  0  0
    0.3420   16.3817   -6.7832 H   0  0  0  0  0  0  0  0  0  0  0  0
    3.2952   14.7942   -8.0100 H   0  0  0  0  0  0  0  0  0  0  0  0
    2.5729   14.2064   -9.5461 H   0  0  0  0  0  0  0  0  0  0  0  0
    3.6168   15.6682   -9.5461 H   0  0  0  0  0  0  0  0  0  0  0  0
    1.6875   18.0855   -8.5810 H   0  0  0  0  0  0  0  0  0  0  0  0
    2.5784   17.4219   -9.9926 H   0  0  0  0  0  0  0  0  0  0  0  0
    0.7822   17.4417   -9.9926 H   0  0  0  0  0  0  0  0  0  0  0  0
   -0.1067   12.8770   -4.6617 H   0  0  0  0  0  0  0  0  0  0  0  0
    1.7862   11.5964   -5.4423 H   0  0  0  0  0  0  0  0  0  0  0  0
    2.8657   12.3016   -4.2197 H   0  0  0  0  0  0  0  0  0  0  0  0
    1.7433    9.6749   -4.1279 H   0  0  0  0  0  0  0  0  0  0  0  0
    2.4873   10.4794   -2.7487 H   0  0  0  0  0  0  0  0  0  0  0  0
   -1.6015    9.8459   -3.5118 H   0  0  0  0  0  0  0  0  0  0  0  0
   -0.9830   11.1289   -4.6064 H   0  0  0  0  0  0  0  0  0  0  0  0
   -0.2191    9.5031   -4.6064 H   0  0  0  0  0  0  0  0  0  0  0  0
    0.9109   10.3030   -0.9168 H   0  0  0  0  0  0  0  0  0  0  0  0
    0.8871    8.2002   -2.4050 H   0  0  0  0  0  0  0  0  0  0  0  0
    0.4730    8.1048   -0.6136 H   0  0  0  0  0  0  0  0  0  0  0  0
   -1.0363    6.6812   -2.2359 H   0  0  0  0  0  0  0  0  0  0  0  0
   -2.8242   10.3007   -2.1707 H   0  0  0  0  0  0  0  0  0  0  0  0
   -3.4059    9.1077    0.6110 H   0  0  0  0  0  0  0  0  0  0  0  0
   -3.9262   10.7373   -0.0089 H   0  0  0  0  0  0  0  0  0  0  0  0
   -5.7698    9.0884   -0.0512 H   0  0  0  0  0  0  0  0  0  0  0  0
   -5.3183    9.6843   -1.6966 H   0  0  0  0  0  0  0  0  0  0  0  0
   -5.6792    7.3149   -1.8059 H   0  0  0  0  0  0  0  0  0  0  0  0
   -5.1580    7.0240    0.5160 H   0  0  0  0  0  0  0  0  0  0  0  0
   -4.6570    9.0394   -3.4842 H   0  0  0  0  0  0  0  0  0  0  0  0
   -3.1494    8.4358   -4.2518 H   0  0  0  0  0  0  0  0  0  0  0  0
   -4.6279    7.4156   -4.2518 H   0  0  0  0  0  0  0  0  0  0  0  0
   -3.3039    5.4675   -1.6533 H   0  0  0  0  0  0  0  0  0  0  0  0
   -4.2332    5.6113   -3.1838 H   0  0  0  0  0  0  0  0  0  0  0  0
   -2.4563    5.8747   -3.1838 H   0  0  0  0  0  0  0  0  0  0  0  0
   -1.5040   10.8225    1.3812 H   0  0  0  0  0  0  0  0  0  0  0  0
   -1.4723    9.0772    0.9576 H   0  0  0  0  0  0  0  0  0  0  0  0
    0.0510   10.0292    0.9576 H   0  0  0  0  0  0  0  0  0  0  0  0
   -2.5476   12.1651   -0.6155 H   0  0  0  0  0  0  0  0  0  0  0  0
   -0.7955   12.3958   -0.0570 H   0  0  0  0  0  0  0  0  0  0  0  0
   -1.8473   12.4121   -2.8990 H   0  0  0  0  0  0  0  0  0  0  0  0
   -1.1274   13.7744   -1.9539 H   0  0  0  0  0  0  0  0  0  0  0  0
    0.8995   12.5689   -0.5089 H   0  0  0  0  0  0  0  0  0  0  0  0
    2.2549   12.2081   -1.6311 H   0  0  0  0  0  0  0  0  0  0  0  0
    1.4983   13.8373   -1.6311 H   0  0  0  0  0  0  0  0  0  0  0  0
  1  2  1  0
  2  3  1  0
  3  4  1  0
  4  5  1  0
  5  6  1  0
  6  7  1  0
  7  8  1  0
  7  9  1  0
  2 10  1  0
 10 11  1  0
 11 12  1  0
 12 13  1  0
 13 14  1  6
 13 15  1  0
 15 16  1  0
 16 17  1  0
 17 18  2  0
 18 19  1  0
 19 20  1  0
 20 21  1  0
 21 22  1  0
 22 23  1  0
 22 24  1  0
 24 25  1  0
 24 26  1  0
 19 27  1  0
 27 28  1  1
 27 29  1  0
 29 30  1  0
 30 31  1  0
 31 32  1  1
  7  5  1  0
 31 10  1  0
 31 13  1  0
 27 15  1  0
 24 18  1  0
  1 33  1  0
  1 34  1  0
  1 35  1  0
  2 36  1  6
  3 37  1  0
  3 38  1  0
  4 39  1  0
  4 40  1  0
  5 41  1  1
  8 42  1  0
  8 43  1  0
  8 44  1  0
  9 45  1  0
  9 46  1  0
  9 47  1  0
 10 48  1  6
 11 49  1  0
 11 50  1  0
 12 51  1  0
 12 52  1  0
 14 53  1  0
 14 54  1  0
 14 55  1  0
 15 56  1  1
 16 57  1  0
 16 58  1  0
 17 59  1  0
 19 60  1  6
 20 61  1  0
 20 62  1  0
 21 63  1  0
 21 64  1  0
 22 65  1  6
 23 66  1  0
 25 67  1  0
 25 68  1  0
 25 69  1  0
 26 70  1  0
 26 71  1  0
 26 72  1  0
 28 73  1  0
 28 74  1  0
 28 75  1  0
 29 76  1  0
 29 77  1  0
 30 78  1  0
 30 79  1  0
 32 80  1  0
 32 81  1  0
 32 82  1  0
M  END
>  <meeko>  (18) 
{"is_sidechain": [false], "intermolecular_energy": 2.731, "internal_energy": -0.839}

$$$$
EPH_relaxed_0001_pdb2pqr_Repair_226_r2_0001_out
     RDKit          3D

 82 86  0  0  0  0  0  0  0  0999 V2000
   -0.0790   10.4640   -3.7950 C   0  0  0  0  0  0  0  0  0  0  0  0
    0.9210   10.2180   -2.6620 C   0  0  2  0  0  0  0  0  0  0  0  0
    0.5620    8.9680   -1.8330 C   0  0  0  0  0  0  0  0  0  0  0  0
   -0.8450    8.4320   -2.1060 C   0  0  0  0  0  0  0  0  0  0  0  0
   -1.7200    8.5280   -0.8930 C   0  0  2  0  0  0  0  0  0  0  0  0
   -3.0970    8.8180   -1.1690 O   0  0  0  0  0  0  0  0  0  0  0  0
   -2.3740    9.8180   -0.4330 C   0  0  0  0  0  0  0  0  0  0  0  0
   -2.1790   11.1010   -1.1790 C   0  0  0  0  0  0  0  0  0  0  0  0
   -2.7960    9.9350    0.9990 C   0  0  0  0  0  0  0  0  0  0  0  0
    0.9920   11.4420   -1.7560 C   0  0  1  0  0  0  0  0  0  0  0  0
    2.0280   11.2790   -0.6120 C   0  0  0  0  0  0  0  0  0  0  0  0
    2.6480   12.6790   -0.3680 C   0  0  0  0  0  0  0  0  0  0  0  0
    1.7250   13.6540   -1.1360 C   0  0  1  0  0  0  0  0  0  0  0  0
    0.5090   13.8870   -0.1850 C   0  0  0  0  0  0  0  0  0  0  0  0
    2.3700   15.0030   -1.5910 C   0  0  2  0  0  0  0  0  0  0  0  0
    2.8590   15.9100   -0.4480 C   0  0  0  0  0  0  0  0  0  0  0  0
    1.8540   16.8880    0.0650 C   0  0  0  0  0  0  0  0  0  0  0  0
    0.7090   17.2300   -0.5540 C   0  0  0  0  0  0  0  0  0  0  0  0
    0.3750   16.6860   -1.9490 C   0  0  1  0  0  0  0  0  0  0  0  0
   -0.1190   17.8470   -2.8520 C   0  0  0  0  0  0  0  0  0  0  0  0
   -1.2810   18.6170   -2.2320 C   0  0  0  0  0  0  0  0  0  0  0  0
   -0.8910   19.1910   -0.8720 C   0  0  2  0  0  0  0  0  0  0  0  0
    0.1110   20.1950   -1.0660 O   0  0  0  0  0  0  0  0  0  0  0  0
   -0.3680   18.1150    0.1200 C   0  0  0  0  0  0  0  0  0  0  0  0
   -1.5390   17.2030    0.5630 C   0  0  0  0  0  0  0  0  0  0  0  0
    0.1220   18.8440    1.4000 C   0  0  0  0  0  0  0  0  0  0  0  0
    1.5070   15.8130   -2.6420 C   0  0  1  0  0  0  0  0  0  0  0  0
    2.4970   16.7390   -3.4120 C   0  0  0  0  0  0  0  0  0  0  0  0
    0.8450   14.8760   -3.7210 C   0  0  0  0  0  0  0  0  0  0  0  0
    0.3350   13.5070   -3.2330 C   0  0  0  0  0  0  0  0  0  0  0  0
    1.4050   12.7850   -2.4070 C   0  0  2  0  0  0  0  0  0  0  0  0
    2.6320   12.5170   -3.3440 C   0  0  0  0  0  0  0  0  0  0  0  0
   -1.0637   10.7062   -3.3688 H   0  0  0  0  0  0  0  0  0  0  0  0
    0.2687   11.3034   -4.4151 H   0  0  0  0  0  0  0  0  0  0  0  0
   -0.1604    9.5591   -4.4151 H   0  0  0  0  0  0  0  0  0  0  0  0
    1.9044   10.0386   -3.1211 H   0  0  0  0  0  0  0  0  0  0  0  0
    1.2873    8.1752   -2.0683 H   0  0  0  0  0  0  0  0  0  0  0  0
    0.5931    9.2647   -0.7742 H   0  0  0  0  0  0  0  0  0  0  0  0
   -1.2979    9.0177   -2.9195 H   0  0  0  0  0  0  0  0  0  0  0  0
   -0.7597    7.3712   -2.3841 H   0  0  0  0  0  0  0  0  0  0  0  0
   -1.1096    7.7808   -0.3647 H   0  0  0  0  0  0  0  0  0  0  0  0
   -2.0536   11.9263   -0.4626 H   0  0  0  0  0  0  0  0  0  0  0  0
   -1.2821   11.0248   -1.8113 H   0  0  0  0  0  0  0  0  0  0  0  0
   -3.0580   11.2947   -1.8113 H   0  0  0  0  0  0  0  0  0  0  0  0
   -1.9436    9.6987    1.6529 H   0  0  0  0  0  0  0  0  0  0  0  0
   -3.1372   10.9616    1.1980 H   0  0  0  0  0  0  0  0  0  0  0  0
   -3.6171    9.2306    1.1980 H   0  0  0  0  0  0  0  0  0  0  0  0
   -0.0569   11.4900   -1.4280 H   0  0  0  0  0  0  0  0  0  0  0  0
    1.5307   10.9204    0.3013 H   0  0  0  0  0  0  0  0  0  0  0  0
    2.8021   10.5454   -0.8814 H   0  0  0  0  0  0  0  0  0  0  0  0
    2.6574   12.9177    0.7057 H   0  0  0  0  0  0  0  0  0  0  0  0
    3.6923   12.7377   -0.7086 H   0  0  0  0  0  0  0  0  0  0  0  0
    0.8439   13.8228    0.8608 H   0  0  0  0  0  0  0  0  0  0  0  0
    0.0822   14.8833   -0.3729 H   0  0  0  0  0  0  0  0  0  0  0  0
   -0.2558   13.1191   -0.3729 H   0  0  0  0  0  0  0  0  0  0  0  0
    3.2766   14.6659   -2.1148 H   0  0  0  0  0  0  0  0  0  0  0  0
    3.1649   15.2660    0.3897 H   0  0  0  0  0  0  0  0  0  0  0  0
    3.6811   16.5096   -0.8659 H   0  0  0  0  0  0  0  0  0  0  0  0
    2.0676   17.3697    1.0306 H   0  0  0  0  0  0  0  0  0  0  0  0
   -0.4338   15.9545   -1.8051 H   0  0  0  0  0  0  0  0  0  0  0  0
    0.7160   18.5433   -3.0194 H   0  0  0  0  0  0  0  0  0  0  0  0
   -0.4753   17.4077   -3.7954 H   0  0  0  0  0  0  0  0  0  0  0  0
   -1.5653   19.4413   -2.9026 H   0  0  0  0  0  0  0  0  0  0  0  0
   -2.1255   17.9261   -2.0925 H   0  0  0  0  0  0  0  0  0  0  0  0
   -1.7990   19.6177   -0.4209 H   0  0  0  0  0  0  0  0  0  0  0  0
    0.9720   19.7460   -1.1100 H   0  0  0  0  0  0  0  0  0  0  0  0
   -1.5822   17.1694    1.6616 H   0  0  0  0  0  0  0  0  0  0  0  0
   -2.4851   17.6046    0.1710 H   0  0  0  0  0  0  0  0  0  0  0  0
   -1.3813   16.1874    0.1710 H   0  0  0  0  0  0  0  0  0  0  0  0
   -0.2393   18.3065    2.2891 H   0  0  0  0  0  0  0  0  0  0  0  0
    1.2217   18.8700    1.4089 H   0  0  0  0  0  0  0  0  0  0  0  0
   -0.2692   19.8721    1.4089 H   0  0  0  0  0  0  0  0  0  0  0  0
    3.1039   17.3067   -2.6913 H   0  0  0  0  0  0  0  0  0  0  0  0
    3.1563   16.1259   -4.0440 H   0  0  0  0  0  0  0  0  0  0  0  0
    1.9293   17.4378   -4.0440 H   0  0  0  0  0  0  0  0  0  0  0  0
   -0.0115   15.4164   -4.1505 H   0  0  0  0  0  0  0  0  0  0  0  0
    1.6497   14.6456   -4.4347 H   0  0  0  0  0  0  0  0  0  0  0  0
   -0.5593   13.6574   -2.6105 H   0  0  0  0  0  0  0  0  0  0  0  0
    0.0941   12.8895   -4.1109 H   0  0  0  0  0  0  0  0  0  0  0  0
    3.5250   12.3220   -2.7320 H   0  0  0  0  0  0  0  0  0  0  0  0
    2.4245   11.6430   -3.9789 H   0  0  0  0  0  0  0  0  0  0  0  0
    2.8078   13.3979   -3.9789 H   0  0  0  0  0  0  0  0  0  0  0  0
  1  2  1  0
  2  3  1  0
  3  4  1  0
  4  5  1  0
  5  6  1  0
  6  7  1  0
  7  8  1  0
  7  9  1  0
  2 10  1  0
 10 11  1  0
 11 12  1  0
 12 13  1  0
 13 14  1  1
 13 15  1  0
 15 16  1  0
 16 17  1  0
 17 18  2  0
 18 19  1  0
 19 20  1  0
 20 21  1  0
 21 22  1  0
 22 23  1  0
 22 24  1  0
 24 25  1  0
 24 26  1  0
 19 27  1  0
 27 28  1  6
 27 29  1  0
 29 30  1  0
 30 31  1  0
 31 32  1  6
  7  5  1  0
 31 10  1  0
 31 13  1  0
 27 15  1  0
 24 18  1  0
  1 33  1  0
  1 34  1  0
  1 35  1  0
  2 36  1  6
  3 37  1  0
  3 38  1  0
  4 39  1  0
  4 40  1  0
  5 41  1  1
  8 42  1  0
  8 43  1  0
  8 44  1  0
  9 45  1  0
  9 46  1  0
  9 47  1  0
 10 48  1  1
 11 49  1  0
 11 50  1  0
 12 51  1  0
 12 52  1  0
 14 53  1  0
 14 54  1  0
 14 55  1  0
 15 56  1  6
 16 57  1  0
 16 58  1  0
 17 59  1  0
 19 60  1  1
 20 61  1  0
 20 62  1  0
 21 63  1  0
 21 64  1  0
 22 65  1  1
 23 66  1  0
 25 67  1  0
 25 68  1  0
 25 69  1  0
 26 70  1  0
 26 71  1  0
 26 72  1  0
 28 73  1  0
 28 74  1  0
 28 75  1  0
 29 76  1  0
 29 77  1  0
 30 78  1  0
 30 79  1  0
 32 80  1  0
 32 81  1  0
 32 82  1  0
M  END
>  <meeko>  (19) 
{"is_sidechain": [false], "intermolecular_energy": 2.731, "internal_energy": -0.839}

$$$$
