EPH_relaxed_0001_pdb2pqr_Repair_272_r2_0001_out
     RDKit          3D

 82 86  0  0  0  0  0  0  0  0999 V2000
   -1.6920    8.5780   -1.8660 C   0  0  0  0  0  0  0  0  0  0  0  0
   -2.0800    9.1110   -0.4840 C   0  0  2  0  0  0  0  0  0  0  0  0
   -3.5750    9.4810   -0.4030 C   0  0  0  0  0  0  0  0  0  0  0  0
   -4.5010    8.2700   -0.2620 C   0  0  0  0  0  0  0  0  0  0  0  0
   -5.1790    7.9370   -1.5560 C   0  0  2  0  0  0  0  0  0  0  0  0
   -6.3450    8.7210   -1.8410 O   0  0  0  0  0  0  0  0  0  0  0  0
   -6.5600    7.3140   -1.6420 C   0  0  0  0  0  0  0  0  0  0  0  0
   -7.3460    6.9870   -0.4110 C   0  0  0  0  0  0  0  0  0  0  0  0
   -6.9380    6.5800   -2.8900 C   0  0  0  0  0  0  0  0  0  0  0  0
   -1.2240   10.3220   -0.1350 C   0  0  1  0  0  0  0  0  0  0  0  0
   -0.1970   10.0240    0.9900 C   0  0  0  0  0  0  0  0  0  0  0  0
    1.0730   10.8520    0.6670 C   0  0  0  0  0  0  0  0  0  0  0  0
    0.6240   11.8430   -0.4330 C   0  0  1  0  0  0  0  0  0  0  0  0
   -0.0870   13.0000    0.3360 C   0  0  0  0  0  0  0  0  0  0  0  0
    1.7480   12.3820   -1.3770 C   0  0  2  0  0  0  0  0  0  0  0  0
    2.8470   13.2030   -0.6810 C   0  0  0  0  0  0  0  0  0  0  0  0
    2.5940   14.6730   -0.6060 C   0  0  0  0  0  0  0  0  0  0  0  0
    1.6730   15.3460   -1.3210 C   0  0  0  0  0  0  0  0  0  0  0  0
    0.8340   14.6350   -2.3910 C   0  0  1  0  0  0  0  0  0  0  0  0
    0.8110   15.4920   -3.6850 C   0  0  0  0  0  0  0  0  0  0  0  0
    0.3450   16.9220   -3.4310 C   0  0  0  0  0  0  0  0  0  0  0  0
    1.2390   17.6140   -2.4060 C   0  0  2  0  0  0  0  0  0  0  0  0
    2.5430   17.7820   -2.9700 O   0  0  0  0  0  0  0  0  0  0  0  0
    1.3460   16.8370   -1.0630 C   0  0  0  0  0  0  0  0  0  0  0  0
   -0.0030   16.9150   -0.3080 C   0  0  0  0  0  0  0  0  0  0  0  0
    2.3860   17.5670   -0.1710 C   0  0  0  0  0  0  0  0  0  0  0  0
    1.2090   13.1170   -2.6710 C   0  0  1  0  0  0  0  0  0  0  0  0
    2.3470   13.0370   -3.7350 C   0  0  0  0  0  0  0  0  0  0  0  0
   -0.0370   12.3870   -3.2990 C   0  0  0  0  0  0  0  0  0  0  0  0
   -1.0500   11.7710   -2.3150 C   0  0  0  0  0  0  0  0  0  0  0  0
   -0.3390   10.9160   -1.2600 C   0  0  2  0  0  0  0  0  0  0  0  0
    0.3670    9.7310   -2.0020 C   0  0  0  0  0  0  0  0  0  0  0  0
   -1.0482    7.6936   -1.7504 H   0  0  0  0  0  0  0  0  0  0  0  0
   -2.6007    8.3002   -2.4202 H   0  0  0  0  0  0  0  0  0  0  0  0
   -1.1484    9.3573   -2.4202 H   0  0  0  0  0  0  0  0  0  0  0  0
   -1.8994    8.3062    0.2438 H   0  0  0  0  0  0  0  0  0  0  0  0
   -3.7242   10.1358    0.4682 H   0  0  0  0  0  0  0  0  0  0  0  0
   -3.8356    9.9769   -1.3496 H   0  0  0  0  0  0  0  0  0  0  0  0
   -3.9070    7.4030    0.0626 H   0  0  0  0  0  0  0  0  0  0  0  0
   -5.2767    8.5159    0.4781 H   0  0  0  0  0  0  0  0  0  0  0  0
   -4.2174    7.6657   -2.0162 H   0  0  0  0  0  0  0  0  0  0  0  0
   -6.7510    7.2345    0.4805 H   0  0  0  0  0  0  0  0  0  0  0  0
   -8.2773    7.5723   -0.4044 H   0  0  0  0  0  0  0  0  0  0  0  0
   -7.5873    5.9138   -0.4044 H   0  0  0  0  0  0  0  0  0  0  0  0
   -7.4266    5.6312   -2.6236 H   0  0  0  0  0  0  0  0  0  0  0  0
   -7.6311    7.1958   -3.4819 H   0  0  0  0  0  0  0  0  0  0  0  0
   -6.0341    6.3734   -3.4819 H   0  0  0  0  0  0  0  0  0  0  0  0
   -2.0164   11.0349    0.1369 H   0  0  0  0  0  0  0  0  0  0  0  0
   -0.6066   10.3238    1.9659 H   0  0  0  0  0  0  0  0  0  0  0  0
    0.0340    8.9497    1.0395 H   0  0  0  0  0  0  0  0  0  0  0  0
    1.4207   11.3936    1.5591 H   0  0  0  0  0  0  0  0  0  0  0  0
    1.9116   10.2192    0.3411 H   0  0  0  0  0  0  0  0  0  0  0  0
    0.0135   12.8364    1.4191 H   0  0  0  0  0  0  0  0  0  0  0  0
    0.3774   13.9598    0.0655 H   0  0  0  0  0  0  0  0  0  0  0  0
   -1.1530   13.0193    0.0655 H   0  0  0  0  0  0  0  0  0  0  0  0
    2.2367   11.4563   -1.7151 H   0  0  0  0  0  0  0  0  0  0  0  0
    2.9556   12.8239    0.3459 H   0  0  0  0  0  0  0  0  0  0  0  0
    3.7524   13.0808   -1.2937 H   0  0  0  0  0  0  0  0  0  0  0  0
    3.2127   15.2552    0.0928 H   0  0  0  0  0  0  0  0  0  0  0  0
   -0.1822   14.5558   -1.9774 H   0  0  0  0  0  0  0  0  0  0  0  0
    1.8266   15.5217   -4.1064 H   0  0  0  0  0  0  0  0  0  0  0  0
    0.0974   15.0268   -4.3810 H   0  0  0  0  0  0  0  0  0  0  0  0
    0.3785   17.4845   -4.3757 H   0  0  0  0  0  0  0  0  0  0  0  0
   -0.6816   16.8916   -3.0371 H   0  0  0  0  0  0  0  0  0  0  0  0
    0.7803   18.5857   -2.1707 H   0  0  0  0  0  0  0  0  0  0  0  0
    2.7650   16.9640   -3.4460 H   0  0  0  0  0  0  0  0  0  0  0  0
    0.1825   16.9043    0.7762 H   0  0  0  0  0  0  0  0  0  0  0  0
   -0.5232   17.8447   -0.5818 H   0  0  0  0  0  0  0  0  0  0  0  0
   -0.6269   16.0514   -0.5818 H   0  0  0  0  0  0  0  0  0  0  0  0
    2.1439   17.3971    0.8885 H   0  0  0  0  0  0  0  0  0  0  0  0
    3.3915   17.1755   -0.3847 H   0  0  0  0  0  0  0  0  0  0  0  0
    2.3595   18.6457   -0.3847 H   0  0  0  0  0  0  0  0  0  0  0  0
    3.3201   12.9686   -3.2267 H   0  0  0  0  0  0  0  0  0  0  0  0
    2.1987   12.1471   -4.3643 H   0  0  0  0  0  0  0  0  0  0  0  0
    2.3247   13.9389   -4.3643 H   0  0  0  0  0  0  0  0  0  0  0  0
   -0.5764   13.1207   -3.9161 H   0  0  0  0  0  0  0  0  0  0  0  0
    0.3792   11.5341   -3.8551 H   0  0  0  0  0  0  0  0  0  0  0  0
   -1.6003   12.5796   -1.8117 H   0  0  0  0  0  0  0  0  0  0  0  0
   -1.7415   11.1284   -2.8797 H   0  0  0  0  0  0  0  0  0  0  0  0
    0.7837    9.0315   -1.2624 H   0  0  0  0  0  0  0  0  0  0  0  0
   -0.3650    9.2049   -2.6324 H   0  0  0  0  0  0  0  0  0  0  0  0
    1.1781   10.1243   -2.6324 H   0  0  0  0  0  0  0  0  0  0  0  0
  1  2  1  0
  2  3  1  0
  3  4  1  0
  4  5  1  0
  5  6  1  0
  6  7  1  0
  7  8  1  0
  7  9  1  0
  2 10  1  0
 10 11  1  0
 11 12  1  0
 12 13  1  0
 13 14  1  1
 13 15  1  0
 15 16  1  0
 16 17  1  0
 17 18  2  0
 18 19  1  0
 19 20  1  0
 20 21  1  0
 21 22  1  0
 22 23  1  0
 22 24  1  0
 24 25  1  0
 24 26  1  0
 19 27  1  0
 27 28  1  6
 27 29  1  0
 29 30  1  0
 30 31  1  0
 31 32  1  6
  7  5  1  0
 31 10  1  0
 31 13  1  0
 27 15  1  0
 24 18  1  0
  1 33  1  0
  1 34  1  0
  1 35  1  0
  2 36  1  1
  3 37  1  0
  3 38  1  0
  4 39  1  0
  4 40  1  0
  5 41  1  6
  8 42  1  0
  8 43  1  0
  8 44  1  0
  9 45  1  0
  9 46  1  0
  9 47  1  0
 10 48  1  1
 11 49  1  0
 11 50  1  0
 12 51  1  0
 12 52  1  0
 14 53  1  0
 14 54  1  0
 14 55  1  0
 15 56  1  6
 16 57  1  0
 16 58  1  0
 17 59  1  0
 19 60  1  1
 20 61  1  0
 20 62  1  0
 21 63  1  0
 21 64  1  0
 22 65  1  1
 23 66  1  0
 25 67  1  0
 25 68  1  0
 25 69  1  0
 26 70  1  0
 26 71  1  0
 26 72  1  0
 28 73  1  0
 28 74  1  0
 28 75  1  0
 29 76  1  0
 29 77  1  0
 30 78  1  0
 30 79  1  0
 32 80  1  0
 32 81  1  0
 32 82  1  0
M  END
>  <meeko>  (1) 
{"is_sidechain": [false], "intermolecular_energy": 2.731, "internal_energy": -0.839}

$$$$
EPH_relaxed_0001_pdb2pqr_Repair_272_r2_0001_out
     RDKit          3D

 82 86  0  0  0  0  0  0  0  0999 V2000
    4.2470   17.5880   -0.5960 C   0  0  0  0  0  0  0  0  0  0  0  0
    2.8930   18.1550   -0.1620 C   0  0  2  0  0  0  0  0  0  0  0  0
    2.9620   18.8310    1.2220 C   0  0  0  0  0  0  0  0  0  0  0  0
    4.3030   18.6370    1.9350 C   0  0  0  0  0  0  0  0  0  0  0  0
    4.2940   19.2420    3.3060 C   0  0  2  0  0  0  0  0  0  0  0  0
    5.3380   20.1940    3.5470 O   0  0  0  0  0  0  0  0  0  0  0  0
    5.3800   18.9950    4.3360 C   0  0  0  0  0  0  0  0  0  0  0  0
    6.5510   18.1120    4.0390 C   0  0  0  0  0  0  0  0  0  0  0  0
    5.0580   19.2120    5.7820 C   0  0  0  0  0  0  0  0  0  0  0  0
    1.8450   17.0480   -0.1500 C   0  0  1  0  0  0  0  0  0  0  0  0
    0.4160   17.5740   -0.4450 C   0  0  0  0  0  0  0  0  0  0  0  0
   -0.3120   16.4670   -1.2500 C   0  0  0  0  0  0  0  0  0  0  0  0
    0.5950   15.2220   -1.1070 C   0  0  1  0  0  0  0  0  0  0  0  0
    0.2330   14.6210    0.2880 C   0  0  0  0  0  0  0  0  0  0  0  0
    0.4840   14.1520   -2.2420 C   0  0  2  0  0  0  0  0  0  0  0  0
   -0.8970   13.4890   -2.3820 C   0  0  0  0  0  0  0  0  0  0  0  0
   -1.0920   12.2460   -1.5780 C   0  0  0  0  0  0  0  0  0  0  0  0
   -0.1120   11.5270   -1.0000 C   0  0  0  0  0  0  0  0  0  0  0  0
    1.3630   11.8930   -1.2100 C   0  0  1  0  0  0  0  0  0  0  0  0
    2.1730   10.6120   -1.5430 C   0  0  0  0  0  0  0  0  0  0  0  0
    1.9870    9.5160   -0.4990 C   0  0  0  0  0  0  0  0  0  0  0  0
    0.5140    9.1380   -0.3600 C   0  0  2  0  0  0  0  0  0  0  0  0
    0.0810    8.5200   -1.5750 O   0  0  0  0  0  0  0  0  0  0  0  0
   -0.4010   10.3510   -0.0340 C   0  0  0  0  0  0  0  0  0  0  0  0
   -0.1320   10.8330    1.4130 C   0  0  0  0  0  0  0  0  0  0  0  0
   -1.8730    9.8590   -0.0610 C   0  0  0  0  0  0  0  0  0  0  0  0
    1.6440   13.0760   -2.2340 C   0  0  1  0  0  0  0  0  0  0  0  0
    1.7400   12.5130   -3.6840 C   0  0  0  0  0  0  0  0  0  0  0  0
    3.0480   13.7120   -1.9110 C   0  0  0  0  0  0  0  0  0  0  0  0
    3.0740   14.8460   -0.8680 C   0  0  0  0  0  0  0  0  0  0  0  0
    2.0100   15.9020   -1.1800 C   0  0  2  0  0  0  0  0  0  0  0  0
    2.3600   16.5400   -2.5670 C   0  0  0  0  0  0  0  0  0  0  0  0
    4.8425   17.3386    0.2946 H   0  0  0  0  0  0  0  0  0  0  0  0
    4.0888   16.6805   -1.1972 H   0  0  0  0  0  0  0  0  0  0  0  0
    4.7826   18.3374   -1.1972 H   0  0  0  0  0  0  0  0  0  0  0  0
    2.6092   18.9274   -0.8920 H   0  0  0  0  0  0  0  0  0  0  0  0
    2.7913   19.9097    1.0906 H   0  0  0  0  0  0  0  0  0  0  0  0
    2.1925   18.3580    1.8498 H   0  0  0  0  0  0  0  0  0  0  0  0
    4.5080   17.5598    2.0220 H   0  0  0  0  0  0  0  0  0  0  0  0
    5.0821   19.1398    1.3432 H   0  0  0  0  0  0  0  0  0  0  0  0
    3.1977   19.1682    3.3572 H   0  0  0  0  0  0  0  0  0  0  0  0
    7.0023   17.7717    4.9827 H   0  0  0  0  0  0  0  0  0  0  0  0
    6.2150   17.2405    3.4580 H   0  0  0  0  0  0  0  0  0  0  0  0
    7.2965   18.6747    3.4580 H   0  0  0  0  0  0  0  0  0  0  0  0
    5.8097   18.7054    6.4051 H   0  0  0  0  0  0  0  0  0  0  0  0
    5.0658   20.2898    6.0016 H   0  0  0  0  0  0  0  0  0  0  0  0
    4.0619   18.8002    6.0016 H   0  0  0  0  0  0  0  0  0  0  0  0
    1.9955   16.6631    0.8694 H   0  0  0  0  0  0  0  0  0  0  0  0
   -0.1173   17.7699    0.4969 H   0  0  0  0  0  0  0  0  0  0  0  0
    0.4516   18.5157   -1.0124 H   0  0  0  0  0  0  0  0  0  0  0  0
   -1.3090   16.2719   -0.8283 H   0  0  0  0  0  0  0  0  0  0  0  0
   -0.4699   16.7502   -2.3011 H   0  0  0  0  0  0  0  0  0  0  0  0
    0.6260   15.2735    1.0815 H   0  0  0  0  0  0  0  0  0  0  0  0
   -0.8604   14.5465    0.3826 H   0  0  0  0  0  0  0  0  0  0  0  0
    0.6783   13.6196    0.3826 H   0  0  0  0  0  0  0  0  0  0  0  0
    0.6169   14.7580   -3.1504 H   0  0  0  0  0  0  0  0  0  0  0  0
   -1.6579   14.2191   -2.0690 H   0  0  0  0  0  0  0  0  0  0  0  0
   -0.9840   13.1865   -3.4360 H   0  0  0  0  0  0  0  0  0  0  0  0
   -2.1237   11.8877   -1.4470 H   0  0  0  0  0  0  0  0  0  0  0  0
    1.7102   12.3159   -0.2557 H   0  0  0  0  0  0  0  0  0  0  0  0
    1.8417   10.2290   -2.5195 H   0  0  0  0  0  0  0  0  0  0  0  0
    3.2387   10.8842   -1.5559 H   0  0  0  0  0  0  0  0  0  0  0  0
    2.5593    8.6275   -0.8041 H   0  0  0  0  0  0  0  0  0  0  0  0
    2.3460    9.8908    0.4709 H   0  0  0  0  0  0  0  0  0  0  0  0
    0.4290    8.4448    0.4899 H   0  0  0  0  0  0  0  0  0  0  0  0
   -0.8870    8.4330   -1.5320 H   0  0  0  0  0  0  0  0  0  0  0  0
   -0.5405   10.1010    2.1252 H   0  0  0  0  0  0  0  0  0  0  0  0
    0.9521   10.9325    1.5708 H   0  0  0  0  0  0  0  0  0  0  0  0
   -0.6165   11.8079    1.5708 H   0  0  0  0  0  0  0  0  0  0  0  0
   -2.2378    9.7371    0.9696 H   0  0  0  0  0  0  0  0  0  0  0  0
   -2.4969   10.5975   -0.5858 H   0  0  0  0  0  0  0  0  0  0  0  0
   -1.9274    8.8938   -0.5858 H   0  0  0  0  0  0  0  0  0  0  0  0
    1.9248   11.4293   -3.6451 H   0  0  0  0  0  0  0  0  0  0  0  0
    0.7961   12.7052   -4.2152 H   0  0  0  0  0  0  0  0  0  0  0  0
    2.5669   13.0071   -4.2152 H   0  0  0  0  0  0  0  0  0  0  0  0
    3.7013   12.9069   -1.5435 H   0  0  0  0  0  0  0  0  0  0  0  0
    3.3757   14.1787   -2.8516 H   0  0  0  0  0  0  0  0  0  0  0  0
    2.8797   14.4228    0.1286 H   0  0  0  0  0  0  0  0  0  0  0  0
    4.0634   15.3259   -0.8962 H   0  0  0  0  0  0  0  0  0  0  0  0
    2.8836   17.4945   -2.4099 H   0  0  0  0  0  0  0  0  0  0  0  0
    3.0085   15.8548   -3.1326 H   0  0  0  0  0  0  0  0  0  0  0  0
    1.4336   16.7188   -3.1326 H   0  0  0  0  0  0  0  0  0  0  0  0
  1  2  1  0
  2  3  1  0
  3  4  1  0
  4  5  1  0
  5  6  1  0
  6  7  1  0
  7  8  1  0
  7  9  1  0
  2 10  1  0
 10 11  1  0
 11 12  1  0
 12 13  1  0
 13 14  1  1
 13 15  1  0
 15 16  1  0
 16 17  1  0
 17 18  2  0
 18 19  1  0
 19 20  1  0
 20 21  1  0
 21 22  1  0
 22 23  1  0
 22 24  1  0
 24 25  1  0
 24 26  1  0
 19 27  1  0
 27 28  1  6
 27 29  1  0
 29 30  1  0
 30 31  1  0
 31 32  1  6
  7  5  1  0
 31 10  1  0
 31 13  1  0
 27 15  1  0
 24 18  1  0
  1 33  1  0
  1 34  1  0
  1 35  1  0
  2 36  1  6
  3 37  1  0
  3 38  1  0
  4 39  1  0
  4 40  1  0
  5 41  1  1
  8 42  1  0
  8 43  1  0
  8 44  1  0
  9 45  1  0
  9 46  1  0
  9 47  1  0
 10 48  1  1
 11 49  1  0
 11 50  1  0
 12 51  1  0
 12 52  1  0
 14 53  1  0
 14 54  1  0
 14 55  1  0
 15 56  1  6
 16 57  1  0
 16 58  1  0
 17 59  1  0
 19 60  1  1
 20 61  1  0
 20 62  1  0
 21 63  1  0
 21 64  1  0
 22 65  1  1
 23 66  1  0
 25 67  1  0
 25 68  1  0
 25 69  1  0
 26 70  1  0
 26 71  1  0
 26 72  1  0
 28 73  1  0
 28 74  1  0
 28 75  1  0
 29 76  1  0
 29 77  1  0
 30 78  1  0
 30 79  1  0
 32 80  1  0
 32 81  1  0
 32 82  1  0
M  END
>  <meeko>  (2) 
{"is_sidechain": [false], "intermolecular_energy": 2.731, "internal_energy": -0.839}

$$$$
EPH_relaxed_0001_pdb2pqr_Repair_272_r2_0001_out
     RDKit          3D

 82 86  0  0  0  0  0  0  0  0999 V2000
    2.3430   17.9790   -2.7420 C   0  0  0  0  0  0  0  0  0  0  0  0
    1.0370   17.6110   -2.0310 C   0  0  2  0  0  0  0  0  0  0  0  0
    1.1690   17.6910   -0.4970 C   0  0  0  0  0  0  0  0  0  0  0  0
    0.8550   19.0760    0.0760 C   0  0  0  0  0  0  0  0  0  0  0  0
   -0.5730   19.1830    0.5190 C   0  0  2  0  0  0  0  0  0  0  0  0
   -1.4680   18.2620   -0.1190 O   0  0  0  0  0  0  0  0  0  0  0  0
   -1.6950   19.6560   -0.3850 C   0  0  0  0  0  0  0  0  0  0  0  0
   -1.4390   20.0540   -1.8050 C   0  0  0  0  0  0  0  0  0  0  0  0
   -2.9420   20.1940    0.2440 C   0  0  0  0  0  0  0  0  0  0  0  0
    0.5980   16.2110   -2.4440 C   0  0  1  0  0  0  0  0  0  0  0  0
    0.6840   15.9860   -3.9770 C   0  0  0  0  0  0  0  0  0  0  0  0
    1.0960   14.5060   -4.1890 C   0  0  0  0  0  0  0  0  0  0  0  0
    0.9100   13.8470   -2.8020 C   0  0  1  0  0  0  0  0  0  0  0  0
   -0.6170   13.5400   -2.7060 C   0  0  0  0  0  0  0  0  0  0  0  0
    1.7740   12.5740   -2.5210 C   0  0  2  0  0  0  0  0  0  0  0  0
    1.4950   11.3780   -3.4480 C   0  0  0  0  0  0  0  0  0  0  0  0
    0.4470   10.4300   -2.9670 C   0  0  0  0  0  0  0  0  0  0  0  0
   -0.0410   10.3720   -1.7140 C   0  0  0  0  0  0  0  0  0  0  0  0
    0.5370   11.2580   -0.6030 C   0  0  1  0  0  0  0  0  0  0  0  0
    0.7810   10.4020    0.6670 C   0  0  0  0  0  0  0  0  0  0  0  0
   -0.4670    9.6460    1.1130 C   0  0  0  0  0  0  0  0  0  0  0  0
   -0.9780    8.7330    0.0010 C   0  0  2  0  0  0  0  0  0  0  0  0
   -0.0180    7.6940   -0.2190 O   0  0  0  0  0  0  0  0  0  0  0  0
   -1.2500    9.4840   -1.3320 C   0  0  0  0  0  0  0  0  0  0  0  0
   -2.4920   10.3960   -1.1720 C   0  0  0  0  0  0  0  0  0  0  0  0
   -1.6230    8.4270   -2.4070 C   0  0  0  0  0  0  0  0  0  0  0  0
    1.8020   12.1340   -1.0010 C   0  0  1  0  0  0  0  0  0  0  0  0
    3.1070   11.3040   -0.8030 C   0  0  0  0  0  0  0  0  0  0  0  0
    1.9050   13.3630   -0.0230 C   0  0  0  0  0  0  0  0  0  0  0  0
    1.1240   14.6320   -0.4180 C   0  0  0  0  0  0  0  0  0  0  0  0
    1.4030   15.0160   -1.8740 C   0  0  2  0  0  0  0  0  0  0  0  0
    2.9280   15.3520   -1.9970 C   0  0  0  0  0  0  0  0  0  0  0  0
    3.1189   18.1976   -1.9936 H   0  0  0  0  0  0  0  0  0  0  0  0
    2.6675   17.1373   -3.3715 H   0  0  0  0  0  0  0  0  0  0  0  0
    2.1804   18.8663   -3.3715 H   0  0  0  0  0  0  0  0  0  0  0  0
    0.2757   18.3444   -2.3353 H   0  0  0  0  0  0  0  0  0  0  0  0
    0.4743   16.9646   -0.0502 H   0  0  0  0  0  0  0  0  0  0  0  0
    2.2190   17.4723   -0.2526 H   0  0  0  0  0  0  0  0  0  0  0  0
    1.5108   19.2614    0.9395 H   0  0  0  0  0  0  0  0  0  0  0  0
    1.0247   19.8207   -0.7156 H   0  0  0  0  0  0  0  0  0  0  0  0
   -0.2620   19.4867    1.5295 H   0  0  0  0  0  0  0  0  0  0  0  0
   -0.8440   20.9790   -1.8250 H   0  0  0  0  0  0  0  0  0  0  0  0
   -0.8870   19.2519   -2.3168 H   0  0  0  0  0  0  0  0  0  0  0  0
   -2.3978   20.2236   -2.3168 H   0  0  0  0  0  0  0  0  0  0  0  0
   -2.8473   20.1531    1.3392 H   0  0  0  0  0  0  0  0  0  0  0  0
   -3.0918   21.2368   -0.0724 H   0  0  0  0  0  0  0  0  0  0  0  0
   -3.8034   19.5875   -0.0724 H   0  0  0  0  0  0  0  0  0  0  0  0
   -0.4217   16.2083   -2.0315 H   0  0  0  0  0  0  0  0  0  0  0  0
   -0.2935   16.1777   -4.4435 H   0  0  0  0  0  0  0  0  0  0  0  0
    1.4137   16.6690   -4.4363 H   0  0  0  0  0  0  0  0  0  0  0  0
    0.4481   14.0258   -4.9371 H   0  0  0  0  0  0  0  0  0  0  0  0
    2.1262   14.4090   -4.5623 H   0  0  0  0  0  0  0  0  0  0  0  0
   -0.9132   13.4804   -1.6483 H   0  0  0  0  0  0  0  0  0  0  0  0
   -1.1841   14.3421   -3.2010 H   0  0  0  0  0  0  0  0  0  0  0  0
   -0.8300   12.5811   -3.2010 H   0  0  0  0  0  0  0  0  0  0  0  0
    2.7885   12.9159   -2.7736 H   0  0  0  0  0  0  0  0  0  0  0  0
    1.1752   11.7717   -4.4241 H   0  0  0  0  0  0  0  0  0  0  0  0
    2.4307   10.8013   -3.4911 H   0  0  0  0  0  0  0  0  0  0  0  0
    0.0386    9.7179   -3.6993 H   0  0  0  0  0  0  0  0  0  0  0  0
   -0.2258   12.0233   -0.3969 H   0  0  0  0  0  0  0  0  0  0  0  0
    1.5769    9.6734    0.4533 H   0  0  0  0  0  0  0  0  0  0  0  0
    1.0651   11.0858    1.4805 H   0  0  0  0  0  0  0  0  0  0  0  0
   -0.2226    9.0365    1.9955 H   0  0  0  0  0  0  0  0  0  0  0  0
   -1.2523   10.3769    1.3561 H   0  0  0  0  0  0  0  0  0  0  0  0
   -1.9429    8.3198    0.3301 H   0  0  0  0  0  0  0  0  0  0  0  0
   -0.3210    7.1700   -0.9800 H   0  0  0  0  0  0  0  0  0  0  0  0
   -2.6996   10.5485   -0.1026 H   0  0  0  0  0  0  0  0  0  0  0  0
   -2.2975   11.3675   -1.6499 H   0  0  0  0  0  0  0  0  0  0  0  0
   -3.3607    9.9196   -1.6499 H   0  0  0  0  0  0  0  0  0  0  0  0
   -1.9499    7.5005   -1.9123 H   0  0  0  0  0  0  0  0  0  0  0  0
   -2.4386    8.8148   -3.0350 H   0  0  0  0  0  0  0  0  0  0  0  0
   -0.7447    8.2170   -3.0350 H   0  0  0  0  0  0  0  0  0  0  0  0
    3.3028   11.1795    0.2723 H   0  0  0  0  0  0  0  0  0  0  0  0
    2.9874   10.3156   -1.2708 H   0  0  0  0  0  0  0  0  0  0  0  0
    3.9515   11.8313   -1.2708 H   0  0  0  0  0  0  0  0  0  0  0  0
    1.5357   13.0375    0.9607 H   0  0  0  0  0  0  0  0  0  0  0  0
    2.9643   13.6588   -0.0425 H   0  0  0  0  0  0  0  0  0  0  0  0
    0.0471   14.4446   -0.2953 H   0  0  0  0  0  0  0  0  0  0  0  0
    1.4472   15.4592    0.2311 H   0  0  0  0  0  0  0  0  0  0  0  0
    3.3645   15.4482   -0.9919 H   0  0  0  0  0  0  0  0  0  0  0  0
    3.4385   14.5448   -2.5427 H   0  0  0  0  0  0  0  0  0  0  0  0
    3.0520   16.2990   -2.5427 H   0  0  0  0  0  0  0  0  0  0  0  0
  1  2  1  0
  2  3  1  0
  3  4  1  0
  4  5  1  0
  5  6  1  0
  6  7  1  0
  7  8  1  0
  7  9  1  0
  2 10  1  0
 10 11  1  0
 11 12  1  0
 12 13  1  0
 13 14  1  1
 13 15  1  0
 15 16  1  0
 16 17  1  0
 17 18  2  0
 18 19  1  0
 19 20  1  0
 20 21  1  0
 21 22  1  0
 22 23  1  0
 22 24  1  0
 24 25  1  0
 24 26  1  0
 19 27  1  0
 27 28  1  6
 27 29  1  0
 29 30  1  0
 30 31  1  0
 31 32  1  1
  7  5  1  0
 31 10  1  0
 31 13  1  0
 27 15  1  0
 24 18  1  0
  1 33  1  0
  1 34  1  0
  1 35  1  0
  2 36  1  6
  3 37  1  0
  3 38  1  0
  4 39  1  0
  4 40  1  0
  5 41  1  1
  8 42  1  0
  8 43  1  0
  8 44  1  0
  9 45  1  0
  9 46  1  0
  9 47  1  0
 10 48  1  1
 11 49  1  0
 11 50  1  0
 12 51  1  0
 12 52  1  0
 14 53  1  0
 14 54  1  0
 14 55  1  0
 15 56  1  6
 16 57  1  0
 16 58  1  0
 17 59  1  0
 19 60  1  1
 20 61  1  0
 20 62  1  0
 21 63  1  0
 21 64  1  0
 22 65  1  1
 23 66  1  0
 25 67  1  0
 25 68  1  0
 25 69  1  0
 26 70  1  0
 26 71  1  0
 26 72  1  0
 28 73  1  0
 28 74  1  0
 28 75  1  0
 29 76  1  0
 29 77  1  0
 30 78  1  0
 30 79  1  0
 32 80  1  0
 32 81  1  0
 32 82  1  0
M  END
>  <meeko>  (3) 
{"is_sidechain": [false], "intermolecular_energy": 2.731, "internal_energy": -0.839}

$$$$
EPH_relaxed_0001_pdb2pqr_Repair_272_r2_0001_out
     RDKit          3D

 82 86  0  0  0  0  0  0  0  0999 V2000
    0.3870   18.4900   -0.2150 C   0  0  0  0  0  0  0  0  0  0  0  0
    1.4530   17.3960   -0.3290 C   0  0  2  0  0  0  0  0  0  0  0  0
    2.7200   17.8940   -1.0530 C   0  0  0  0  0  0  0  0  0  0  0  0
    3.9440   18.0120   -0.1400 C   0  0  0  0  0  0  0  0  0  0  0  0
    3.5730   18.5140    1.2230 C   0  0  2  0  0  0  0  0  0  0  0  0
    3.7630   19.9220    1.4140 O   0  0  0  0  0  0  0  0  0  0  0  0
    4.5810   19.0570    2.2180 C   0  0  0  0  0  0  0  0  0  0  0  0
    6.0400   19.1240    1.8920 C   0  0  0  0  0  0  0  0  0  0  0  0
    4.2200   19.0630    3.6710 C   0  0  0  0  0  0  0  0  0  0  0  0
    0.8790   16.1860   -1.0570 C   0  0  1  0  0  0  0  0  0  0  0  0
    0.7320   16.4220   -2.5840 C   0  0  0  0  0  0  0  0  0  0  0  0
    1.0230   15.0650   -3.2760 C   0  0  0  0  0  0  0  0  0  0  0  0
    1.0000   14.0290   -2.1280 C   0  0  1  0  0  0  0  0  0  0  0  0
   -0.5130   13.7270   -1.8910 C   0  0  0  0  0  0  0  0  0  0  0  0
    1.8200   12.7190   -2.3630 C   0  0  2  0  0  0  0  0  0  0  0  0
    1.3430   11.8530   -3.5420 C   0  0  0  0  0  0  0  0  0  0  0  0
    0.3220   10.8180   -3.2010 C   0  0  0  0  0  0  0  0  0  0  0  0
    0.0160   10.4010   -1.9590 C   0  0  0  0  0  0  0  0  0  0  0  0
    0.7970   10.9120   -0.7410 C   0  0  1  0  0  0  0  0  0  0  0  0
    1.1710    9.7160    0.1740 C   0  0  0  0  0  0  0  0  0  0  0  0
   -0.0430    8.8790    0.5680 C   0  0  0  0  0  0  0  0  0  0  0  0
   -0.7590    8.3410   -0.6680 C   0  0  2  0  0  0  0  0  0  0  0  0
    0.0980    7.4010   -1.3240 O   0  0  0  0  0  0  0  0  0  0  0  0
   -1.1750    9.4550   -1.6690 C   0  0  0  0  0  0  0  0  0  0  0  0
   -2.3260   10.2950   -1.0630 C   0  0  0  0  0  0  0  0  0  0  0  0
   -1.7590    8.7670   -2.9330 C   0  0  0  0  0  0  0  0  0  0  0  0
    2.0400   11.8490   -1.0590 C   0  0  1  0  0  0  0  0  0  0  0  0
    3.3110   10.9810   -1.3120 C   0  0  0  0  0  0  0  0  0  0  0  0
    2.3530   12.7350    0.2050 C   0  0  0  0  0  0  0  0  0  0  0  0
    1.5980   14.0730    0.3200 C   0  0  0  0  0  0  0  0  0  0  0  0
    1.6870   14.8660   -0.9880 C   0  0  2  0  0  0  0  0  0  0  0  0
    3.1960   15.2040   -1.2410 C   0  0  0  0  0  0  0  0  0  0  0  0
    0.1857   18.6966    0.8465 H   0  0  0  0  0  0  0  0  0  0  0  0
    0.7481   19.4063   -0.7048 H   0  0  0  0  0  0  0  0  0  0  0  0
   -0.5384   18.1527   -0.7048 H   0  0  0  0  0  0  0  0  0  0  0  0
    1.7465   17.1112    0.6922 H   0  0  0  0  0  0  0  0  0  0  0  0
    2.9574   17.1883   -1.8627 H   0  0  0  0  0  0  0  0  0  0  0  0
    2.5000   18.9044   -1.4282 H   0  0  0  0  0  0  0  0  0  0  0  0
    4.4109   17.0211   -0.0400 H   0  0  0  0  0  0  0  0  0  0  0  0
    4.6411   18.7325   -0.5927 H   0  0  0  0  0  0  0  0  0  0  0  0
    2.7831   17.7538    1.3137 H   0  0  0  0  0  0  0  0  0  0  0  0
    6.6232   19.1508    2.8243 H   0  0  0  0  0  0  0  0  0  0  0  0
    6.3258   18.2380    1.3060 H   0  0  0  0  0  0  0  0  0  0  0  0
    6.2434   20.0324    1.3060 H   0  0  0  0  0  0  0  0  0  0  0  0
    5.1379   19.0477    4.2769 H   0  0  0  0  0  0  0  0  0  0  0  0
    3.6433   19.9709    3.9018 H   0  0  0  0  0  0  0  0  0  0  0  0
    3.6135   18.1748    3.9018 H   0  0  0  0  0  0  0  0  0  0  0  0
   -0.0699   16.0752   -0.5117 H   0  0  0  0  0  0  0  0  0  0  0  0
   -0.2894   16.7559   -2.8192 H   0  0  0  0  0  0  0  0  0  0  0  0
    1.4270   17.2002   -2.9323 H   0  0  0  0  0  0  0  0  0  0  0  0
    0.2479   14.8354   -4.0219 H   0  0  0  0  0  0  0  0  0  0  0  0
    1.9817   15.0688   -3.8154 H   0  0  0  0  0  0  0  0  0  0  0  0
   -0.7140   13.6869   -0.8103 H   0  0  0  0  0  0  0  0  0  0  0  0
   -1.1214   14.5214   -2.3479 H   0  0  0  0  0  0  0  0  0  0  0  0
   -0.7698   12.7599   -2.3479 H   0  0  0  0  0  0  0  0  0  0  0  0
    2.8059   13.1080   -2.6576 H   0  0  0  0  0  0  0  0  0  0  0  0
    0.9095   12.5210   -4.3009 H   0  0  0  0  0  0  0  0  0  0  0  0
    2.2284   11.3029   -3.8934 H   0  0  0  0  0  0  0  0  0  0  0  0
   -0.2264   10.3575   -4.0360 H   0  0  0  0  0  0  0  0  0  0  0  0
    0.1169   11.5916   -0.2066 H   0  0  0  0  0  0  0  0  0  0  0  0
    1.8846    9.0722   -0.3611 H   0  0  0  0  0  0  0  0  0  0  0  0
    1.6083   10.1252    1.0967 H   0  0  0  0  0  0  0  0  0  0  0  0
    0.2887    8.0334    1.1885 H   0  0  0  0  0  0  0  0  0  0  0  0
   -0.7420    9.5167    1.1290 H   0  0  0  0  0  0  0  0  0  0  0  0
   -1.6889    7.8618   -0.3280 H   0  0  0  0  0  0  0  0  0  0  0  0
    0.3030    7.7550   -2.2060 H   0  0  0  0  0  0  0  0  0  0  0  0
   -2.2707   10.2546    0.0349 H   0  0  0  0  0  0  0  0  0  0  0  0
   -2.2330   11.3390   -1.3967 H   0  0  0  0  0  0  0  0  0  0  0  0
   -3.2919    9.8881   -1.3967 H   0  0  0  0  0  0  0  0  0  0  0  0
   -2.4431    7.9611   -2.6288 H   0  0  0  0  0  0  0  0  0  0  0  0
   -2.3085    9.5075   -3.5327 H   0  0  0  0  0  0  0  0  0  0  0  0
   -0.9390    8.3451   -3.5327 H   0  0  0  0  0  0  0  0  0  0  0  0
    3.7487   10.6821   -0.3481 H   0  0  0  0  0  0  0  0  0  0  0  0
    3.0338   10.0827   -1.8832 H   0  0  0  0  0  0  0  0  0  0  0  0
    4.0468   11.5661   -1.8832 H   0  0  0  0  0  0  0  0  0  0  0  0
    2.1113   12.1388    1.0973 H   0  0  0  0  0  0  0  0  0  0  0  0
    3.4135   13.0105    0.1078 H   0  0  0  0  0  0  0  0  0  0  0  0
    0.5408   13.8714    0.5476 H   0  0  0  0  0  0  0  0  0  0  0  0
    2.0577   14.6677    1.1232 H   0  0  0  0  0  0  0  0  0  0  0  0
    3.7125   15.3197   -0.2767 H   0  0  0  0  0  0  0  0  0  0  0  0
    3.6637   14.3884   -1.8119 H   0  0  0  0  0  0  0  0  0  0  0  0
    3.2711   16.1412   -1.8119 H   0  0  0  0  0  0  0  0  0  0  0  0
  1  2  1  0
  2  3  1  0
  3  4  1  0
  4  5  1  0
  5  6  1  0
  6  7  1  0
  7  8  1  0
  7  9  1  0
  2 10  1  0
 10 11  1  0
 11 12  1  0
 12 13  1  0
 13 14  1  1
 13 15  1  0
 15 16  1  0
 16 17  1  0
 17 18  2  0
 18 19  1  0
 19 20  1  0
 20 21  1  0
 21 22  1  0
 22 23  1  0
 22 24  1  0
 24 25  1  0
 24 26  1  0
 19 27  1  0
 27 28  1  6
 27 29  1  0
 29 30  1  0
 30 31  1  0
 31 32  1  6
  7  5  1  0
 31 10  1  0
 31 13  1  0
 27 15  1  0
 24 18  1  0
  1 33  1  0
  1 34  1  0
  1 35  1  0
  2 36  1  1
  3 37  1  0
  3 38  1  0
  4 39  1  0
  4 40  1  0
  5 41  1  1
  8 42  1  0
  8 43  1  0
  8 44  1  0
  9 45  1  0
  9 46  1  0
  9 47  1  0
 10 48  1  1
 11 49  1  0
 11 50  1  0
 12 51  1  0
 12 52  1  0
 14 53  1  0
 14 54  1  0
 14 55  1  0
 15 56  1  6
 16 57  1  0
 16 58  1  0
 17 59  1  0
 19 60  1  1
 20 61  1  0
 20 62  1  0
 21 63  1  0
 21 64  1  0
 22 65  1  1
 23 66  1  0
 25 67  1  0
 25 68  1  0
 25 69  1  0
 26 70  1  0
 26 71  1  0
 26 72  1  0
 28 73  1  0
 28 74  1  0
 28 75  1  0
 29 76  1  0
 29 77  1  0
 30 78  1  0
 30 79  1  0
 32 80  1  0
 32 81  1  0
 32 82  1  0
M  END
>  <meeko>  (4) 
{"is_sidechain": [false], "intermolecular_energy": 2.731, "internal_energy": -0.839}

$$$$
EPH_relaxed_0001_pdb2pqr_Repair_272_r2_0001_out
     RDKit          3D

 82 86  0  0  0  0  0  0  0  0999 V2000
    2.1480   18.0330   -2.5930 C   0  0  0  0  0  0  0  0  0  0  0  0
    0.6270   17.8600   -2.6220 C   0  0  2  0  0  0  0  0  0  0  0  0
   -0.0350   18.3080   -1.3040 C   0  0  0  0  0  0  0  0  0  0  0  0
    0.7490   17.9010   -0.0530 C   0  0  0  0  0  0  0  0  0  0  0  0
    1.2940   19.0940    0.6720 C   0  0  2  0  0  0  0  0  0  0  0  0
    2.1560   19.9290   -0.1120 O   0  0  0  0  0  0  0  0  0  0  0  0
    2.7630   19.2680    1.0100 C   0  0  0  0  0  0  0  0  0  0  0  0
    3.7780   18.2360    0.6330 C   0  0  0  0  0  0  0  0  0  0  0  0
    3.1350   20.1940    2.1260 C   0  0  0  0  0  0  0  0  0  0  0  0
    0.2750   16.4060   -2.9140 C   0  0  1  0  0  0  0  0  0  0  0  0
    0.3670   16.0600   -4.4240 C   0  0  0  0  0  0  0  0  0  0  0  0
    0.8710   14.5970   -4.5180 C   0  0  0  0  0  0  0  0  0  0  0  0
    0.7350   14.0440   -3.0800 C   0  0  1  0  0  0  0  0  0  0  0  0
   -0.7690   13.6500   -2.9420 C   0  0  0  0  0  0  0  0  0  0  0  0
    1.6800   12.8570   -2.7050 C   0  0  2  0  0  0  0  0  0  0  0  0
    1.4730   11.5730   -3.5270 C   0  0  0  0  0  0  0  0  0  0  0  0
    0.4900   10.6030   -2.9590 C   0  0  0  0  0  0  0  0  0  0  0  0
    0.0150   10.6190   -1.7000 C   0  0  0  0  0  0  0  0  0  0  0  0
    0.5410   11.6280   -0.6710 C   0  0  1  0  0  0  0  0  0  0  0  0
    0.8470   10.8970    0.6620 C   0  0  0  0  0  0  0  0  0  0  0  0
   -0.3480   10.1040    1.1820 C   0  0  0  0  0  0  0  0  0  0  0  0
   -0.8060    9.0710    0.1550 C   0  0  2  0  0  0  0  0  0  0  0  0
    0.2160    8.0810    0.0110 O   0  0  0  0  0  0  0  0  0  0  0  0
   -1.1340    9.6910   -1.2320 C   0  0  0  0  0  0  0  0  0  0  0  0
   -2.4300   10.5320   -1.1340 C   0  0  0  0  0  0  0  0  0  0  0  0
   -1.4450    8.5280   -2.2120 C   0  0  0  0  0  0  0  0  0  0  0  0
    1.7450   12.5460   -1.1540 C   0  0  1  0  0  0  0  0  0  0  0  0
    3.1020   11.8190   -0.9030 C   0  0  0  0  0  0  0  0  0  0  0  0
    1.7750   13.8560   -0.2820 C   0  0  0  0  0  0  0  0  0  0  0  0
    0.9130   15.0360   -0.7710 C   0  0  0  0  0  0  0  0  0  0  0  0
    1.1580   15.3150   -2.2570 C   0  0  2  0  0  0  0  0  0  0  0  0
    2.6580   15.7360   -2.4240 C   0  0  0  0  0  0  0  0  0  0  0  0
    2.4927   18.0722   -1.5491 H   0  0  0  0  0  0  0  0  0  0  0  0
    2.6235   17.1832   -3.1045 H   0  0  0  0  0  0  0  0  0  0  0  0
    2.4205   18.9679   -3.1045 H   0  0  0  0  0  0  0  0  0  0  0  0
    0.2364   18.5055   -3.4225 H   0  0  0  0  0  0  0  0  0  0  0  0
   -0.1258   19.4042   -1.3158 H   0  0  0  0  0  0  0  0  0  0  0  0
   -1.0127   17.8070   -1.2483 H   0  0  0  0  0  0  0  0  0  0  0  0
    0.0800   17.3481    0.6228 H   0  0  0  0  0  0  0  0  0  0  0  0
    1.5965   17.2745   -0.3681 H   0  0  0  0  0  0  0  0  0  0  0  0
    0.3823   19.1688    1.2829 H   0  0  0  0  0  0  0  0  0  0  0  0
    4.2101   17.7967    1.5442 H   0  0  0  0  0  0  0  0  0  0  0  0
    3.2948   17.4464    0.0388 H   0  0  0  0  0  0  0  0  0  0  0  0
    4.5755   18.7060    0.0388 H   0  0  0  0  0  0  0  0  0  0  0  0
    2.9379   19.7034    3.0906 H   0  0  0  0  0  0  0  0  0  0  0  0
    4.2036   20.4447    2.0537 H   0  0  0  0  0  0  0  0  0  0  0  0
    2.5368   21.1143    2.0537 H   0  0  0  0  0  0  0  0  0  0  0  0
   -0.7403   16.3742   -2.4919 H   0  0  0  0  0  0  0  0  0  0  0  0
   -0.6233   16.1504   -4.8943 H   0  0  0  0  0  0  0  0  0  0  0  0
    1.0496   16.7470   -4.9456 H   0  0  0  0  0  0  0  0  0  0  0  0
    0.2510   14.0169   -5.2173 H   0  0  0  0  0  0  0  0  0  0  0  0
    1.9033   14.5348   -4.8928 H   0  0  0  0  0  0  0  0  0  0  0  0
   -1.0336   13.5807   -1.8766 H   0  0  0  0  0  0  0  0  0  0  0  0
   -1.3943   14.4147   -3.4261 H   0  0  0  0  0  0  0  0  0  0  0  0
   -0.9391   12.6770   -3.4261 H   0  0  0  0  0  0  0  0  0  0  0  0
    2.6687   13.2415   -2.9960 H   0  0  0  0  0  0  0  0  0  0  0  0
    1.1237   11.8635   -4.5288 H   0  0  0  0  0  0  0  0  0  0  0  0
    2.4434   11.0551   -3.5315 H   0  0  0  0  0  0  0  0  0  0  0  0
    0.1233    9.8086   -3.6257 H   0  0  0  0  0  0  0  0  0  0  0  0
   -0.2684   12.3572   -0.5188 H   0  0  0  0  0  0  0  0  0  0  0  0
    1.6861   10.2045    0.4998 H   0  0  0  0  0  0  0  0  0  0  0  0
    1.0927   11.6618    1.4135 H   0  0  0  0  0  0  0  0  0  0  0  0
   -0.0608    9.5868    2.1094 H   0  0  0  0  0  0  0  0  0  0  0  0
   -1.1768   10.8019    1.3717 H   0  0  0  0  0  0  0  0  0  0  0  0
   -1.7402    8.6255    0.5276 H   0  0  0  0  0  0  0  0  0  0  0  0
    0.8290    8.3880   -0.6780 H   0  0  0  0  0  0  0  0  0  0  0  0
   -2.6819   10.6955   -0.0758 H   0  0  0  0  0  0  0  0  0  0  0  0
   -2.2756   11.5025   -1.6283 H   0  0  0  0  0  0  0  0  0  0  0  0
   -3.2534    9.9956   -1.6283 H   0  0  0  0  0  0  0  0  0  0  0  0
   -1.6876    7.6208   -1.6392 H   0  0  0  0  0  0  0  0  0  0  0  0
   -2.3015    8.8016   -2.8456 H   0  0  0  0  0  0  0  0  0  0  0  0
   -0.5662    8.3375   -2.8456 H   0  0  0  0  0  0  0  0  0  0  0  0
    3.2739   11.7269    0.1796 H   0  0  0  0  0  0  0  0  0  0  0  0
    3.0704   10.8170   -1.3558 H   0  0  0  0  0  0  0  0  0  0  0  0
    3.9187   12.4004   -1.3558 H   0  0  0  0  0  0  0  0  0  0  0  0
    1.4329   13.5906    0.7292 H   0  0  0  0  0  0  0  0  0  0  0  0
    2.8132   14.2153   -0.3379 H   0  0  0  0  0  0  0  0  0  0  0  0
   -0.1491   14.7922   -0.6210 H   0  0  0  0  0  0  0  0  0  0  0  0
    1.1872   15.9327   -0.1959 H   0  0  0  0  0  0  0  0  0  0  0  0
    3.1154   15.8644   -1.4319 H   0  0  0  0  0  0  0  0  0  0  0  0
    3.1985   14.9549   -2.9787 H   0  0  0  0  0  0  0  0  0  0  0  0
    2.7131   16.6843   -2.9787 H   0  0  0  0  0  0  0  0  0  0  0  0
  1  2  1  0
  2  3  1  0
  3  4  1  0
  4  5  1  0
  5  6  1  0
  6  7  1  0
  7  8  1  0
  7  9  1  0
  2 10  1  0
 10 11  1  0
 11 12  1  0
 12 13  1  0
 13 14  1  1
 13 15  1  0
 15 16  1  0
 16 17  1  0
 17 18  2  0
 18 19  1  0
 19 20  1  0
 20 21  1  0
 21 22  1  0
 22 23  1  0
 22 24  1  0
 24 25  1  0
 24 26  1  0
 19 27  1  0
 27 28  1  6
 27 29  1  0
 29 30  1  0
 30 31  1  0
 31 32  1  1
  7  5  1  0
 31 10  1  0
 31 13  1  0
 27 15  1  0
 24 18  1  0
  1 33  1  0
  1 34  1  0
  1 35  1  0
  2 36  1  6
  3 37  1  0
  3 38  1  0
  4 39  1  0
  4 40  1  0
  5 41  1  1
  8 42  1  0
  8 43  1  0
  8 44  1  0
  9 45  1  0
  9 46  1  0
  9 47  1  0
 10 48  1  1
 11 49  1  0
 11 50  1  0
 12 51  1  0
 12 52  1  0
 14 53  1  0
 14 54  1  0
 14 55  1  0
 15 56  1  6
 16 57  1  0
 16 58  1  0
 17 59  1  0
 19 60  1  1
 20 61  1  0
 20 62  1  0
 21 63  1  0
 21 64  1  0
 22 65  1  1
 23 66  1  0
 25 67  1  0
 25 68  1  0
 25 69  1  0
 26 70  1  0
 26 71  1  0
 26 72  1  0
 28 73  1  0
 28 74  1  0
 28 75  1  0
 29 76  1  0
 29 77  1  0
 30 78  1  0
 30 79  1  0
 32 80  1  0
 32 81  1  0
 32 82  1  0
M  END
>  <meeko>  (5) 
{"is_sidechain": [false], "intermolecular_energy": 2.731, "internal_energy": -0.839}

$$$$
EPH_relaxed_0001_pdb2pqr_Repair_272_r2_0001_out
     RDKit          3D

 82 86  0  0  0  0  0  0  0  0999 V2000
   -3.4060    9.3140    0.5390 C   0  0  0  0  0  0  0  0  0  0  0  0
   -2.5790    9.6810   -0.6970 C   0  0  2  0  0  0  0  0  0  0  0  0
   -1.9070    8.4470   -1.3320 C   0  0  0  0  0  0  0  0  0  0  0  0
   -2.8180    7.6770   -2.2920 C   0  0  0  0  0  0  0  0  0  0  0  0
   -4.2590    7.7800   -1.8920 C   0  0  2  0  0  0  0  0  0  0  0  0
   -4.8100    6.5840   -1.3240 O   0  0  0  0  0  0  0  0  0  0  0  0
   -5.3740    7.0100   -2.5750 C   0  0  0  0  0  0  0  0  0  0  0  0
   -5.0960    6.0810   -3.7150 C   0  0  0  0  0  0  0  0  0  0  0  0
   -6.7740    7.5260   -2.4600 C   0  0  0  0  0  0  0  0  0  0  0  0
   -1.5230   10.7160   -0.3270 C   0  0  1  0  0  0  0  0  0  0  0  0
   -0.4270   10.1420    0.6110 C   0  0  0  0  0  0  0  0  0  0  0  0
    0.9040   10.8360    0.2200 C   0  0  0  0  0  0  0  0  0  0  0  0
    0.4780   12.0130   -0.6890 C   0  0  1  0  0  0  0  0  0  0  0  0
    0.0330   13.1390    0.2950 C   0  0  0  0  0  0  0  0  0  0  0  0
    1.5500   12.5240   -1.7060 C   0  0  2  0  0  0  0  0  0  0  0  0
    2.8290   13.0980   -1.0710 C   0  0  0  0  0  0  0  0  0  0  0  0
    2.8000   14.5650   -0.7950 C   0  0  0  0  0  0  0  0  0  0  0  0
    1.9090   15.4390   -1.2990 C   0  0  0  0  0  0  0  0  0  0  0  0
    0.8590   14.9900   -2.3230 C   0  0  1  0  0  0  0  0  0  0  0  0
    0.8100   16.0050   -3.4950 C   0  0  0  0  0  0  0  0  0  0  0  0
    0.5860   17.4380   -3.0190 C   0  0  0  0  0  0  0  0  0  0  0  0
    1.6830   17.8670   -2.0480 C   0  0  2  0  0  0  0  0  0  0  0  0
    2.9240   17.9400   -2.7570 O   0  0  0  0  0  0  0  0  0  0  0  0
    1.8310   16.9130   -0.8300 C   0  0  0  0  0  0  0  0  0  0  0  0
    0.6030   17.0620    0.1020 C   0  0  0  0  0  0  0  0  0  0  0  0
    3.0610   17.3790   -0.0050 C   0  0  0  0  0  0  0  0  0  0  0  0
    0.9770   13.4860   -2.8240 C   0  0  1  0  0  0  0  0  0  0  0  0
    1.9610   13.4030   -4.0300 C   0  0  0  0  0  0  0  0  0  0  0  0
   -0.4250   13.0110   -3.3600 C   0  0  0  0  0  0  0  0  0  0  0  0
   -1.3950   12.4050   -2.3280 C   0  0  0  0  0  0  0  0  0  0  0  0
   -0.6980   11.3350   -1.4830 C   0  0  2  0  0  0  0  0  0  0  0  0
   -0.2590   10.1770   -2.4430 C   0  0  0  0  0  0  0  0  0  0  0  0
   -2.8391    9.5656    1.4474 H   0  0  0  0  0  0  0  0  0  0  0  0
   -4.3507    9.8774    0.5286 H   0  0  0  0  0  0  0  0  0  0  0  0
   -3.6221    8.2355    0.5286 H   0  0  0  0  0  0  0  0  0  0  0  0
   -3.2679   10.1033   -1.4434 H   0  0  0  0  0  0  0  0  0  0  0  0
   -1.0198    8.7826   -1.8889 H   0  0  0  0  0  0  0  0  0  0  0  0
   -1.6518    7.7612   -0.5107 H   0  0  0  0  0  0  0  0  0  0  0  0
   -2.6988    8.0898   -3.3046 H   0  0  0  0  0  0  0  0  0  0  0  0
   -2.5290    6.6161   -2.2620 H   0  0  0  0  0  0  0  0  0  0  0  0
   -4.1397    8.8463   -1.6494 H   0  0  0  0  0  0  0  0  0  0  0  0
   -4.8014    5.0966   -3.3223 H   0  0  0  0  0  0  0  0  0  0  0  0
   -6.0016    5.9743   -4.3303 H   0  0  0  0  0  0  0  0  0  0  0  0
   -4.2807    6.4893   -4.3303 H   0  0  0  0  0  0  0  0  0  0  0  0
   -7.0422    7.6249   -1.3978 H   0  0  0  0  0  0  0  0  0  0  0  0
   -6.8438    8.5089   -2.9488 H   0  0  0  0  0  0  0  0  0  0  0  0
   -7.4650    6.8235   -2.9488 H   0  0  0  0  0  0  0  0  0  0  0  0
   -2.1675   11.4828    0.1275 H   0  0  0  0  0  0  0  0  0  0  0  0
   -0.6741   10.3602    1.6604 H   0  0  0  0  0  0  0  0  0  0  0  0
   -0.3491    9.0498    0.5058 H   0  0  0  0  0  0  0  0  0  0  0  0
    1.4266   11.2056    1.1146 H   0  0  0  0  0  0  0  0  0  0  0  0
    1.5997   10.1496   -0.2848 H   0  0  0  0  0  0  0  0  0  0  0  0
    0.1688   12.7953    1.3311 H   0  0  0  0  0  0  0  0  0  0  0  0
    0.6435   14.0379    0.1239 H   0  0  0  0  0  0  0  0  0  0  0  0
   -1.0271   13.3777    0.1239 H   0  0  0  0  0  0  0  0  0  0  0  0
    1.8573   11.5966   -2.2115 H   0  0  0  0  0  0  0  0  0  0  0  0
    2.9992   12.5760   -0.1179 H   0  0  0  0  0  0  0  0  0  0  0  0
    3.6311   12.9423   -1.8075 H   0  0  0  0  0  0  0  0  0  0  0  0
    3.5727   14.9658   -0.1224 H   0  0  0  0  0  0  0  0  0  0  0  0
   -0.1031   14.9888   -1.7897 H   0  0  0  0  0  0  0  0  0  0  0  0
    1.7639   15.9598   -4.0408 H   0  0  0  0  0  0  0  0  0  0  0  0
   -0.0383   15.7306   -4.1392 H   0  0  0  0  0  0  0  0  0  0  0  0
    0.5913   18.1114   -3.8888 H   0  0  0  0  0  0  0  0  0  0  0  0
   -0.3825   17.4887   -2.4999 H   0  0  0  0  0  0  0  0  0  0  0  0
    1.3992   18.8496   -1.6430 H   0  0  0  0  0  0  0  0  0  0  0  0
    2.8060   18.5650   -3.4920 H   0  0  0  0  0  0  0  0  0  0  0  0
    0.9318   17.0221    1.1509 H   0  0  0  0  0  0  0  0  0  0  0  0
    0.1107   18.0265   -0.0915 H   0  0  0  0  0  0  0  0  0  0  0  0
   -0.1057   16.2433   -0.0915 H   0  0  0  0  0  0  0  0  0  0  0  0
    2.8362   17.2938    1.0684 H   0  0  0  0  0  0  0  0  0  0  0  0
    3.9273   16.7468   -0.2495 H   0  0  0  0  0  0  0  0  0  0  0  0
    3.2909   18.4266   -0.2495 H   0  0  0  0  0  0  0  0  0  0  0  0
    2.9920   13.3160   -3.6567 H   0  0  0  0  0  0  0  0  0  0  0  0
    1.7172   12.5222   -4.6422 H   0  0  0  0  0  0  0  0  0  0  0  0
    1.8682   14.3122   -4.6422 H   0  0  0  0  0  0  0  0  0  0  0  0
   -0.9214   13.8828   -3.8112 H   0  0  0  0  0  0  0  0  0  0  0  0
   -0.2027   12.1927   -4.0607 H   0  0  0  0  0  0  0  0  0  0  0  0
   -1.7615   13.2037   -1.6664 H   0  0  0  0  0  0  0  0  0  0  0  0
   -2.2321   11.9365   -2.8664 H   0  0  0  0  0  0  0  0  0  0  0  0
    0.0690    9.3119   -1.8480 H   0  0  0  0  0  0  0  0  0  0  0  0
   -1.1087    9.8847   -3.0775 H   0  0  0  0  0  0  0  0  0  0  0  0
    0.5709   10.5215   -3.0775 H   0  0  0  0  0  0  0  0  0  0  0  0
  1  2  1  0
  2  3  1  0
  3  4  1  0
  4  5  1  0
  5  6  1  0
  6  7  1  0
  7  8  1  0
  7  9  1  0
  2 10  1  0
 10 11  1  0
 11 12  1  0
 12 13  1  0
 13 14  1  1
 13 15  1  0
 15 16  1  0
 16 17  1  0
 17 18  2  0
 18 19  1  0
 19 20  1  0
 20 21  1  0
 21 22  1  0
 22 23  1  0
 22 24  1  0
 24 25  1  0
 24 26  1  0
 19 27  1  0
 27 28  1  6
 27 29  1  0
 29 30  1  0
 30 31  1  0
 31 32  1  6
  7  5  1  0
 31 10  1  0
 31 13  1  0
 27 15  1  0
 24 18  1  0
  1 33  1  0
  1 34  1  0
  1 35  1  0
  2 36  1  6
  3 37  1  0
  3 38  1  0
  4 39  1  0
  4 40  1  0
  5 41  1  1
  8 42  1  0
  8 43  1  0
  8 44  1  0
  9 45  1  0
  9 46  1  0
  9 47  1  0
 10 48  1  1
 11 49  1  0
 11 50  1  0
 12 51  1  0
 12 52  1  0
 14 53  1  0
 14 54  1  0
 14 55  1  0
 15 56  1  6
 16 57  1  0
 16 58  1  0
 17 59  1  0
 19 60  1  1
 20 61  1  0
 20 62  1  0
 21 63  1  0
 21 64  1  0
 22 65  1  1
 23 66  1  0
 25 67  1  0
 25 68  1  0
 25 69  1  0
 26 70  1  0
 26 71  1  0
 26 72  1  0
 28 73  1  0
 28 74  1  0
 28 75  1  0
 29 76  1  0
 29 77  1  0
 30 78  1  0
 30 79  1  0
 32 80  1  0
 32 81  1  0
 32 82  1  0
M  END
>  <meeko>  (6) 
{"is_sidechain": [false], "intermolecular_energy": 2.731, "internal_energy": -0.839}

$$$$
EPH_relaxed_0001_pdb2pqr_Repair_272_r2_0001_out
     RDKit          3D

 82 86  0  0  0  0  0  0  0  0999 V2000
    3.7150   17.7080    0.6390 C   0  0  0  0  0  0  0  0  0  0  0  0
    2.8090   18.0290   -0.5530 C   0  0  2  0  0  0  0  0  0  0  0  0
    2.1290   19.4050   -0.4120 C   0  0  0  0  0  0  0  0  0  0  0  0
    1.1840   19.5050    0.7890 C   0  0  0  0  0  0  0  0  0  0  0  0
   -0.1360   20.1030    0.4080 C   0  0  2  0  0  0  0  0  0  0  0  0
   -1.0880   20.1820    1.4760 O   0  0  0  0  0  0  0  0  0  0  0  0
   -1.4340   19.3180    0.3820 C   0  0  0  0  0  0  0  0  0  0  0  0
   -1.4750   17.8660    0.7430 C   0  0  0  0  0  0  0  0  0  0  0  0
   -2.5640   19.8290   -0.4570 C   0  0  0  0  0  0  0  0  0  0  0  0
    1.7540   16.9400   -0.7110 C   0  0  1  0  0  0  0  0  0  0  0  0
    0.5280   17.4120   -1.5380 C   0  0  0  0  0  0  0  0  0  0  0  0
    0.0390   16.1860   -2.3520 C   0  0  0  0  0  0  0  0  0  0  0  0
    0.7790   14.9810   -1.7260 C   0  0  1  0  0  0  0  0  0  0  0  0
   -0.0470   14.6220   -0.4510 C   0  0  0  0  0  0  0  0  0  0  0  0
    0.9820   13.7380   -2.6520 C   0  0  2  0  0  0  0  0  0  0  0  0
   -0.3150   13.0620   -3.1310 C   0  0  0  0  0  0  0  0  0  0  0  0
   -0.8280   11.9710   -2.2500 C   0  0  0  0  0  0  0  0  0  0  0  0
   -0.1290   11.3570   -1.2780 C   0  0  0  0  0  0  0  0  0  0  0  0
    1.3530   11.6810   -1.0480 C   0  0  1  0  0  0  0  0  0  0  0  0
    2.1540   10.3620   -0.8910 C   0  0  0  0  0  0  0  0  0  0  0  0
    1.5800    9.4550    0.1930 C   0  0  0  0  0  0  0  0  0  0  0  0
    0.1230    9.1070   -0.1010 C   0  0  2  0  0  0  0  0  0  0  0  0
    0.0710    8.2960   -1.2790 O   0  0  0  0  0  0  0  0  0  0  0  0
   -0.7800   10.3590   -0.2890 C   0  0  0  0  0  0  0  0  0  0  0  0
   -0.9660   11.0740    1.0720 C   0  0  0  0  0  0  0  0  0  0  0  0
   -2.1890    9.8710   -0.7190 C   0  0  0  0  0  0  0  0  0  0  0  0
    2.0150   12.6770   -2.0950 C   0  0  1  0  0  0  0  0  0  0  0  0
    2.5430   11.8790   -3.3270 C   0  0  0  0  0  0  0  0  0  0  0  0
    3.2730   13.3560   -1.4340 C   0  0  0  0  0  0  0  0  0  0  0  0
    3.0240   14.6470   -0.6320 C   0  0  0  0  0  0  0  0  0  0  0  0
    2.1780   15.6380   -1.4370 C   0  0  2  0  0  0  0  0  0  0  0  0
    2.9930   16.0350   -2.7140 C   0  0  0  0  0  0  0  0  0  0  0  0
    3.1710   17.9008    1.5754 H   0  0  0  0  0  0  0  0  0  0  0  0
    4.0125   16.6497    0.5989 H   0  0  0  0  0  0  0  0  0  0  0  0
    4.6124   18.3429    0.5989 H   0  0  0  0  0  0  0  0  0  0  0  0
    3.4435   18.0656   -1.4508 H   0  0  0  0  0  0  0  0  0  0  0  0
    2.9121   20.1697   -0.3022 H   0  0  0  0  0  0  0  0  0  0  0  0
    1.5185   19.5557   -1.3146 H   0  0  0  0  0  0  0  0  0  0  0  0
    1.0147   18.4965    1.1942 H   0  0  0  0  0  0  0  0  0  0  0  0
    1.6522   20.1584    1.5399 H   0  0  0  0  0  0  0  0  0  0  0  0
    0.3473   20.7544   -0.3350 H   0  0  0  0  0  0  0  0  0  0  0  0
   -1.4780   17.7603    1.8379 H   0  0  0  0  0  0  0  0  0  0  0  0
   -2.3864   17.4106    0.3282 H   0  0  0  0  0  0  0  0  0  0  0  0
   -0.5908   17.3599    0.3282 H   0  0  0  0  0  0  0  0  0  0  0  0
   -3.3702   20.1936    0.1965 H   0  0  0  0  0  0  0  0  0  0  0  0
   -2.2059   20.6528   -1.0920 H   0  0  0  0  0  0  0  0  0  0  0  0
   -2.9460   19.0161   -1.0920 H   0  0  0  0  0  0  0  0  0  0  0  0
    1.5464   16.7295    0.3485 H   0  0  0  0  0  0  0  0  0  0  0  0
   -0.2693   17.7634   -0.8666 H   0  0  0  0  0  0  0  0  0  0  0  0
    0.7973   18.2458   -2.2030 H   0  0  0  0  0  0  0  0  0  0  0  0
   -1.0501   16.0654   -2.2557 H   0  0  0  0  0  0  0  0  0  0  0  0
    0.2465   16.2898   -3.4273 H   0  0  0  0  0  0  0  0  0  0  0  0
    0.5359   14.8753    0.4468 H   0  0  0  0  0  0  0  0  0  0  0  0
   -0.9875   15.1926   -0.4507 H   0  0  0  0  0  0  0  0  0  0  0  0
   -0.2714   13.5451   -0.4507 H   0  0  0  0  0  0  0  0  0  0  0  0
    1.4351   14.1841   -3.5496 H   0  0  0  0  0  0  0  0  0  0  0  0
   -1.0943   13.8349   -3.2039 H   0  0  0  0  0  0  0  0  0  0  0  0
   -0.0737   12.5878   -4.0938 H   0  0  0  0  0  0  0  0  0  0  0  0
   -1.8653   11.6413   -2.4091 H   0  0  0  0  0  0  0  0  0  0  0  0
    1.3967   12.2566   -0.1117 H   0  0  0  0  0  0  0  0  0  0  0  0
    2.1354    9.8219   -1.8491 H   0  0  0  0  0  0  0  0  0  0  0  0
    3.1799   10.6273   -0.5959 H   0  0  0  0  0  0  0  0  0  0  0  0
    2.1699    8.5276    0.2358 H   0  0  0  0  0  0  0  0  0  0  0  0
    1.6266    9.9857    1.1554 H   0  0  0  0  0  0  0  0  0  0  0  0
   -0.2691    8.5650    0.7722 H   0  0  0  0  0  0  0  0  0  0  0  0
   -0.0020    7.3690   -0.9950 H   0  0  0  0  0  0  0  0  0  0  0  0
   -0.7806   10.3612    1.8890 H   0  0  0  0  0  0  0  0  0  0  0  0
   -0.2556   11.9105    1.1469 H   0  0  0  0  0  0  0  0  0  0  0  0
   -1.9940   11.4582    1.1469 H   0  0  0  0  0  0  0  0  0  0  0  0
   -2.7934    9.6617    0.1759 H   0  0  0  0  0  0  0  0  0  0  0  0
   -2.6801   10.6514   -1.3188 H   0  0  0  0  0  0  0  0  0  0  0  0
   -2.0922    8.9540   -1.3188 H   0  0  0  0  0  0  0  0  0  0  0  0
    3.1191   11.0083   -2.9804 H   0  0  0  0  0  0  0  0  0  0  0  0
    1.6921   11.5374   -3.9347 H   0  0  0  0  0  0  0  0  0  0  0  0
    3.1902   12.5286   -3.9347 H   0  0  0  0  0  0  0  0  0  0  0  0
    3.7269   12.6225   -0.7514 H   0  0  0  0  0  0  0  0  0  0  0  0
    3.9124   13.6591   -2.2762 H   0  0  0  0  0  0  0  0  0  0  0  0
    2.4951   14.3958    0.2992 H   0  0  0  0  0  0  0  0  0  0  0  0
    3.9946   15.1143   -0.4095 H   0  0  0  0  0  0  0  0  0  0  0  0
    3.9441   16.4983   -2.4126 H   0  0  0  0  0  0  0  0  0  0  0  0
    3.1970   15.1353   -3.3132 H   0  0  0  0  0  0  0  0  0  0  0  0
    2.4104   16.7502   -3.3132 H   0  0  0  0  0  0  0  0  0  0  0  0
  1  2  1  0
  2  3  1  0
  3  4  1  0
  4  5  1  0
  5  6  1  0
  6  7  1  0
  7  8  1  0
  7  9  1  0
  2 10  1  0
 10 11  1  0
 11 12  1  0
 12 13  1  0
 13 14  1  1
 13 15  1  0
 15 16  1  0
 16 17  1  0
 17 18  2  0
 18 19  1  0
 19 20  1  0
 20 21  1  0
 21 22  1  0
 22 23  1  0
 22 24  1  0
 24 25  1  0
 24 26  1  0
 19 27  1  0
 27 28  1  6
 27 29  1  0
 29 30  1  0
 30 31  1  0
 31 32  1  6
  7  5  1  0
 31 10  1  0
 31 13  1  0
 27 15  1  0
 24 18  1  0
  1 33  1  0
  1 34  1  0
  1 35  1  0
  2 36  1  6
  3 37  1  0
  3 38  1  0
  4 39  1  0
  4 40  1  0
  5 41  1  6
  8 42  1  0
  8 43  1  0
  8 44  1  0
  9 45  1  0
  9 46  1  0
  9 47  1  0
 10 48  1  1
 11 49  1  0
 11 50  1  0
 12 51  1  0
 12 52  1  0
 14 53  1  0
 14 54  1  0
 14 55  1  0
 15 56  1  6
 16 57  1  0
 16 58  1  0
 17 59  1  0
 19 60  1  1
 20 61  1  0
 20 62  1  0
 21 63  1  0
 21 64  1  0
 22 65  1  1
 23 66  1  0
 25 67  1  0
 25 68  1  0
 25 69  1  0
 26 70  1  0
 26 71  1  0
 26 72  1  0
 28 73  1  0
 28 74  1  0
 28 75  1  0
 29 76  1  0
 29 77  1  0
 30 78  1  0
 30 79  1  0
 32 80  1  0
 32 81  1  0
 32 82  1  0
M  END
>  <meeko>  (7) 
{"is_sidechain": [false], "intermolecular_energy": 2.731, "internal_energy": -0.839}

$$$$
EPH_relaxed_0001_pdb2pqr_Repair_272_r2_0001_out
     RDKit          3D

 82 86  0  0  0  0  0  0  0  0999 V2000
   -5.2770    5.7240   -1.5710 C   0  0  0  0  0  0  0  0  0  0  0  0
   -5.4900    7.2230   -1.8030 C   0  0  2  0  0  0  0  0  0  0  0  0
   -5.1890    8.0540   -0.5390 C   0  0  0  0  0  0  0  0  0  0  0  0
   -4.1850    9.1860   -0.7720 C   0  0  0  0  0  0  0  0  0  0  0  0
   -2.8120    8.8170   -0.2980 C   0  0  2  0  0  0  0  0  0  0  0  0
   -2.2930    9.6540    0.7440 O   0  0  0  0  0  0  0  0  0  0  0  0
   -1.5910    9.6920   -0.5090 C   0  0  0  0  0  0  0  0  0  0  0  0
   -1.6850   11.0050   -1.2200 C   0  0  0  0  0  0  0  0  0  0  0  0
   -0.2370    9.0550   -0.4610 C   0  0  0  0  0  0  0  0  0  0  0  0
   -6.9190    7.4790   -2.2670 C   0  0  1  0  0  0  0  0  0  0  0  0
   -7.2390    6.7940   -3.6220 C   0  0  0  0  0  0  0  0  0  0  0  0
   -8.7230    6.3510   -3.5590 C   0  0  0  0  0  0  0  0  0  0  0  0
   -9.2960    7.0800   -2.3220 C   0  0  1  0  0  0  0  0  0  0  0  0
   -9.6180    8.5240   -2.8210 C   0  0  0  0  0  0  0  0  0  0  0  0
  -10.5360    6.4150   -1.6410 C   0  0  2  0  0  0  0  0  0  0  0  0
  -11.7920    6.3180   -2.5240 C   0  0  0  0  0  0  0  0  0  0  0  0
  -12.7230    7.4820   -2.4410 C   0  0  0  0  0  0  0  0  0  0  0  0
  -12.7080    8.4280   -1.4840 C   0  0  0  0  0  0  0  0  0  0  0  0
  -11.7460    8.3280   -0.2930 C   0  0  1  0  0  0  0  0  0  0  0  0
  -12.5180    8.6200    1.0210 C   0  0  0  0  0  0  0  0  0  0  0  0
  -13.2600    9.9520    0.9810 C   0  0  0  0  0  0  0  0  0  0  0  0
  -14.2490    9.9900   -0.1820 C   0  0  2  0  0  0  0  0  0  0  0  0
  -15.2860    9.0350    0.0640 O   0  0  0  0  0  0  0  0  0  0  0  0
  -13.5870    9.7010   -1.5580 C   0  0  0  0  0  0  0  0  0  0  0  0
  -12.6840   10.8920   -1.9620 C   0  0  0  0  0  0  0  0  0  0  0  0
  -14.7140    9.6290   -2.6240 C   0  0  0  0  0  0  0  0  0  0  0  0
  -10.8800    6.9980   -0.2100 C   0  0  1  0  0  0  0  0  0  0  0  0
  -11.6780    5.8900    0.5420 C   0  0  0  0  0  0  0  0  0  0  0  0
   -9.5900    7.2770    0.6480 C   0  0  0  0  0  0  0  0  0  0  0  0
   -8.3600    7.8210   -0.1030 C   0  0  0  0  0  0  0  0  0  0  0  0
   -8.0640    6.9820   -1.3500 C   0  0  2  0  0  0  0  0  0  0  0  0
   -7.7150    5.5290   -0.8780 C   0  0  0  0  0  0  0  0  0  0  0  0
   -5.2481    5.5207   -0.4903 H   0  0  0  0  0  0  0  0  0  0  0  0
   -6.1042    5.1611   -2.0280 H   0  0  0  0  0  0  0  0  0  0  0  0
   -4.3257    5.4138   -2.0280 H   0  0  0  0  0  0  0  0  0  0  0  0
   -4.7834    7.5414   -2.5836 H   0  0  0  0  0  0  0  0  0  0  0  0
   -6.1312    8.4937   -0.1799 H   0  0  0  0  0  0  0  0  0  0  0  0
   -4.7383    7.3704    0.1956 H   0  0  0  0  0  0  0  0  0  0  0  0
   -4.1425    9.4085   -1.8484 H   0  0  0  0  0  0  0  0  0  0  0  0
   -4.5201   10.0640   -0.2003 H   0  0  0  0  0  0  0  0  0  0  0  0
   -3.0016    7.7531   -0.5032 H   0  0  0  0  0  0  0  0  0  0  0  0
   -1.7432   11.8184   -0.4818 H   0  0  0  0  0  0  0  0  0  0  0  0
   -0.7946   11.1451   -1.8505 H   0  0  0  0  0  0  0  0  0  0  0  0
   -2.5863   11.0169   -1.8505 H   0  0  0  0  0  0  0  0  0  0  0  0
    0.0645    8.9131    0.5873 H   0  0  0  0  0  0  0  0  0  0  0  0
   -0.2727    8.0792   -0.9675 H   0  0  0  0  0  0  0  0  0  0  0  0
    0.4920    9.7046   -0.9675 H   0  0  0  0  0  0  0  0  0  0  0  0
   -6.9097    8.5786   -2.2945 H   0  0  0  0  0  0  0  0  0  0  0  0
   -7.0901    7.5032   -4.4496 H   0  0  0  0  0  0  0  0  0  0  0  0
   -6.5766    5.9331   -3.7958 H   0  0  0  0  0  0  0  0  0  0  0  0
   -9.2579    6.6547   -4.4710 H   0  0  0  0  0  0  0  0  0  0  0  0
   -8.8293    5.2586   -3.4855 H   0  0  0  0  0  0  0  0  0  0  0  0
   -9.7658    9.1866   -1.9555 H   0  0  0  0  0  0  0  0  0  0  0  0
   -8.7809    8.8968   -3.4295 H   0  0  0  0  0  0  0  0  0  0  0  0
  -10.5342    8.5059   -3.4295 H   0  0  0  0  0  0  0  0  0  0  0  0
  -10.1953    5.3799   -1.4913 H   0  0  0  0  0  0  0  0  0  0  0  0
  -11.4652    6.2184   -3.5696 H   0  0  0  0  0  0  0  0  0  0  0  0
  -12.3573    5.4501   -2.1537 H   0  0  0  0  0  0  0  0  0  0  0  0
  -13.4855    7.5742   -3.2284 H   0  0  0  0  0  0  0  0  0  0  0  0
  -10.9793    9.0999   -0.4554 H   0  0  0  0  0  0  0  0  0  0  0  0
  -13.2485    7.8145    1.1870 H   0  0  0  0  0  0  0  0  0  0  0  0
  -11.7810    8.6732    1.8359 H   0  0  0  0  0  0  0  0  0  0  0  0
  -13.8085   10.0872    1.9248 H   0  0  0  0  0  0  0  0  0  0  0  0
  -12.5256   10.7595    0.8444 H   0  0  0  0  0  0  0  0  0  0  0  0
  -14.6547   11.0109   -0.2379 H   0  0  0  0  0  0  0  0  0  0  0  0
  -15.8710    9.4050    0.7470 H   0  0  0  0  0  0  0  0  0  0  0  0
  -12.3067   11.3897   -1.0565 H   0  0  0  0  0  0  0  0  0  0  0  0
  -11.8362   10.5236   -2.5583 H   0  0  0  0  0  0  0  0  0  0  0  0
  -13.2676   11.6089   -2.5583 H   0  0  0  0  0  0  0  0  0  0  0  0
  -15.6905    9.5666   -2.1215 H   0  0  0  0  0  0  0  0  0  0  0  0
  -14.6821   10.5310   -3.2528 H   0  0  0  0  0  0  0  0  0  0  0  0
  -14.5676    8.7384   -3.2528 H   0  0  0  0  0  0  0  0  0  0  0  0
  -11.5733    6.0354    1.6273 H   0  0  0  0  0  0  0  0  0  0  0  0
  -12.7407    5.9513    0.2647 H   0  0  0  0  0  0  0  0  0  0  0  0
  -11.2831    4.9015    0.2647 H   0  0  0  0  0  0  0  0  0  0  0  0
   -9.8580    8.0104    1.4228 H   0  0  0  0  0  0  0  0  0  0  0  0
   -9.2811    6.2932    1.0312 H   0  0  0  0  0  0  0  0  0  0  0  0
   -8.5542    8.8604   -0.4063 H   0  0  0  0  0  0  0  0  0  0  0  0
   -7.4895    7.7720    0.5676 H   0  0  0  0  0  0  0  0  0  0  0  0
   -7.7063    5.4928    0.2214 H   0  0  0  0  0  0  0  0  0  0  0  0
   -8.4702    4.8274   -1.2620 H   0  0  0  0  0  0  0  0  0  0  0  0
   -6.7236    5.2469   -1.2620 H   0  0  0  0  0  0  0  0  0  0  0  0
  1  2  1  0
  2  3  1  0
  3  4  1  0
  4  5  1  0
  5  6  1  0
  6  7  1  0
  7  8  1  0
  7  9  1  0
  2 10  1  0
 10 11  1  0
 11 12  1  0
 12 13  1  0
 13 14  1  6
 13 15  1  0
 15 16  1  0
 16 17  1  0
 17 18  2  0
 18 19  1  0
 19 20  1  0
 20 21  1  0
 21 22  1  0
 22 23  1  0
 22 24  1  0
 24 25  1  0
 24 26  1  0
 19 27  1  0
 27 28  1  1
 27 29  1  0
 29 30  1  0
 30 31  1  0
 31 32  1  1
  7  5  1  0
 31 10  1  0
 31 13  1  0
 27 15  1  0
 24 18  1  0
  1 33  1  0
  1 34  1  0
  1 35  1  0
  2 36  1  6
  3 37  1  0
  3 38  1  0
  4 39  1  0
  4 40  1  0
  5 41  1  1
  8 42  1  0
  8 43  1  0
  8 44  1  0
  9 45  1  0
  9 46  1  0
  9 47  1  0
 10 48  1  6
 11 49  1  0
 11 50  1  0
 12 51  1  0
 12 52  1  0
 14 53  1  0
 14 54  1  0
 14 55  1  0
 15 56  1  1
 16 57  1  0
 16 58  1  0
 17 59  1  0
 19 60  1  6
 20 61  1  0
 20 62  1  0
 21 63  1  0
 21 64  1  0
 22 65  1  6
 23 66  1  0
 25 67  1  0
 25 68  1  0
 25 69  1  0
 26 70  1  0
 26 71  1  0
 26 72  1  0
 28 73  1  0
 28 74  1  0
 28 75  1  0
 29 76  1  0
 29 77  1  0
 30 78  1  0
 30 79  1  0
 32 80  1  0
 32 81  1  0
 32 82  1  0
M  END
>  <meeko>  (8) 
{"is_sidechain": [false], "intermolecular_energy": 2.731, "internal_energy": -0.839}

$$$$
EPH_relaxed_0001_pdb2pqr_Repair_272_r2_0001_out
     RDKit          3D

 82 86  0  0  0  0  0  0  0  0999 V2000
    0.0330   10.4600   -3.7750 C   0  0  0  0  0  0  0  0  0  0  0  0
    1.1150   10.2730   -2.7080 C   0  0  2  0  0  0  0  0  0  0  0  0
    0.8960    8.9910   -1.8780 C   0  0  0  0  0  0  0  0  0  0  0  0
    0.2700    9.2460   -0.5050 C   0  0  0  0  0  0  0  0  0  0  0  0
   -1.1480    8.7650   -0.4440 C   0  0  2  0  0  0  0  0  0  0  0  0
   -1.8490    8.8080   -1.6930 O   0  0  0  0  0  0  0  0  0  0  0  0
   -2.3480    9.6680   -0.6560 C   0  0  0  0  0  0  0  0  0  0  0  0
   -2.1850   11.1270   -0.9450 C   0  0  0  0  0  0  0  0  0  0  0  0
   -3.6720    9.2410   -0.1040 C   0  0  0  0  0  0  0  0  0  0  0  0
    1.1540   11.4880   -1.7880 C   0  0  1  0  0  0  0  0  0  0  0  0
    2.2110   11.3500   -0.6610 C   0  0  0  0  0  0  0  0  0  0  0  0
    2.7840   12.7690   -0.4080 C   0  0  0  0  0  0  0  0  0  0  0  0
    1.8150   13.7180   -1.1520 C   0  0  1  0  0  0  0  0  0  0  0  0
    0.6050   13.8960   -0.1820 C   0  0  0  0  0  0  0  0  0  0  0  0
    2.4040   15.0950   -1.5990 C   0  0  2  0  0  0  0  0  0  0  0  0
    2.8760   16.0060   -0.4520 C   0  0  0  0  0  0  0  0  0  0  0  0
    1.8440   16.9400    0.0860 C   0  0  0  0  0  0  0  0  0  0  0  0
    0.6790   17.2480   -0.5130 C   0  0  0  0  0  0  0  0  0  0  0  0
    0.3450   16.7090   -1.9100 C   0  0  1  0  0  0  0  0  0  0  0  0
   -0.2030   17.8610   -2.7920 C   0  0  0  0  0  0  0  0  0  0  0  0
   -1.3830   18.5810   -2.1480 C   0  0  0  0  0  0  0  0  0  0  0  0
   -0.9960   19.1530   -0.7870 C   0  0  2  0  0  0  0  0  0  0  0  0
   -0.0340   20.1940   -0.9820 O   0  0  0  0  0  0  0  0  0  0  0  0
   -0.4210   18.0860    0.1860 C   0  0  0  0  0  0  0  0  0  0  0  0
   -1.5510   17.1270    0.6340 C   0  0  0  0  0  0  0  0  0  0  0  0
    0.0610   18.8180    1.4670 C   0  0  0  0  0  0  0  0  0  0  0  0
    1.4980   15.8850   -2.6290 C   0  0  1  0  0  0  0  0  0  0  0  0
    2.4440   16.8550   -3.4010 C   0  0  0  0  0  0  0  0  0  0  0  0
    0.8560   14.9370   -3.7090 C   0  0  0  0  0  0  0  0  0  0  0  0
    0.4020   13.5440   -3.2310 C   0  0  0  0  0  0  0  0  0  0  0  0
    1.5090   12.8530   -2.4290 C   0  0  2  0  0  0  0  0  0  0  0  0
    2.7320   12.6400   -3.3850 C   0  0  0  0  0  0  0  0  0  0  0  0
   -0.9383   10.6279   -3.2868 H   0  0  0  0  0  0  0  0  0  0  0  0
    0.2829   11.3283   -4.4024 H   0  0  0  0  0  0  0  0  0  0  0  0
   -0.0230    9.5582   -4.4024 H   0  0  0  0  0  0  0  0  0  0  0  0
    2.0786   10.1698   -3.2284 H   0  0  0  0  0  0  0  0  0  0  0  0
    0.2319    8.3206   -2.4433 H   0  0  0  0  0  0  0  0  0  0  0  0
    1.8878    8.5490   -1.7018 H   0  0  0  0  0  0  0  0  0  0  0  0
    0.8589    8.7173    0.2590 H   0  0  0  0  0  0  0  0  0  0  0  0
    0.2720   10.3309   -0.3235 H   0  0  0  0  0  0  0  0  0  0  0  0
   -0.8952    8.0491    0.3519 H   0  0  0  0  0  0  0  0  0  0  0  0
   -2.1228   11.6836    0.0017 H   0  0  0  0  0  0  0  0  0  0  0  0
   -1.2636   11.2853   -1.5246 H   0  0  0  0  0  0  0  0  0  0  0  0
   -3.0488   11.4847   -1.5246 H   0  0  0  0  0  0  0  0  0  0  0  0
   -3.6323    9.2538    0.9952 H   0  0  0  0  0  0  0  0  0  0  0  0
   -4.4541    9.9325   -0.4508 H   0  0  0  0  0  0  0  0  0  0  0  0
   -3.9027    8.2229   -0.4508 H   0  0  0  0  0  0  0  0  0  0  0  0
    0.1090   11.4937   -1.4447 H   0  0  0  0  0  0  0  0  0  0  0  0
    1.7400   10.9630    0.2546 H   0  0  0  0  0  0  0  0  0  0  0  0
    3.0074   10.6485   -0.9504 H   0  0  0  0  0  0  0  0  0  0  0  0
    2.7997   12.9955    0.6683 H   0  0  0  0  0  0  0  0  0  0  0  0
    3.8208   12.8699   -0.7613 H   0  0  0  0  0  0  0  0  0  0  0  0
    0.9584   13.8440    0.8584 H   0  0  0  0  0  0  0  0  0  0  0  0
    0.1327   14.8733   -0.3604 H   0  0  0  0  0  0  0  0  0  0  0  0
   -0.1287   13.0961   -0.3604 H   0  0  0  0  0  0  0  0  0  0  0  0
    3.3150   14.7972   -2.1388 H   0  0  0  0  0  0  0  0  0  0  0  0
    3.2169   15.3640    0.3736 H   0  0  0  0  0  0  0  0  0  0  0  0
    3.6699   16.6399   -0.8738 H   0  0  0  0  0  0  0  0  0  0  0  0
    2.0534   17.4173    1.0547 H   0  0  0  0  0  0  0  0  0  0  0  0
   -0.4353   15.9476   -1.7638 H   0  0  0  0  0  0  0  0  0  0  0  0
    0.6038   18.5890   -2.9622 H   0  0  0  0  0  0  0  0  0  0  0  0
   -0.5562   17.4196   -3.7356 H   0  0  0  0  0  0  0  0  0  0  0  0
   -1.7058   19.4021   -2.8050 H   0  0  0  0  0  0  0  0  0  0  0  0
   -2.2000   17.8584   -2.0057 H   0  0  0  0  0  0  0  0  0  0  0  0
   -1.9130   19.5410   -0.3196 H   0  0  0  0  0  0  0  0  0  0  0  0
   -0.2820   20.6770   -1.7880 H   0  0  0  0  0  0  0  0  0  0  0  0
   -1.5898   17.0941    1.7328 H   0  0  0  0  0  0  0  0  0  0  0  0
   -2.5142   17.4876    0.2437 H   0  0  0  0  0  0  0  0  0  0  0  0
   -1.3518   16.1180    0.2437 H   0  0  0  0  0  0  0  0  0  0  0  0
   -0.2959   18.2761    2.3552 H   0  0  0  0  0  0  0  0  0  0  0  0
    1.1604   18.8544    1.4768 H   0  0  0  0  0  0  0  0  0  0  0  0
   -0.3399   19.8423    1.4768 H   0  0  0  0  0  0  0  0  0  0  0  0
    3.0249   17.4506   -2.6814 H   0  0  0  0  0  0  0  0  0  0  0  0
    3.1302   16.2722   -4.0331 H   0  0  0  0  0  0  0  0  0  0  0  0
    1.8442   17.5264   -4.0331 H   0  0  0  0  0  0  0  0  0  0  0  0
   -0.0252   15.4508   -4.1207 H   0  0  0  0  0  0  0  0  0  0  0  0
    1.6591   14.7438   -4.4354 H   0  0  0  0  0  0  0  0  0  0  0  0
   -0.4884   13.6543   -2.5946 H   0  0  0  0  0  0  0  0  0  0  0  0
    0.1706   12.9284   -4.1127 H   0  0  0  0  0  0  0  0  0  0  0  0
    3.6416   12.4816   -2.7870 H   0  0  0  0  0  0  0  0  0  0  0  0
    2.5524   11.7596   -4.0196 H   0  0  0  0  0  0  0  0  0  0  0  0
    2.8606   13.5293   -4.0196 H   0  0  0  0  0  0  0  0  0  0  0  0
  1  2  1  0
  2  3  1  0
  3  4  1  0
  4  5  1  0
  5  6  1  0
  6  7  1  0
  7  8  1  0
  7  9  1  0
  2 10  1  0
 10 11  1  0
 11 12  1  0
 12 13  1  0
 13 14  1  1
 13 15  1  0
 15 16  1  0
 16 17  1  0
 17 18  2  0
 18 19  1  0
 19 20  1  0
 20 21  1  0
 21 22  1  0
 22 23  1  0
 22 24  1  0
 24 25  1  0
 24 26  1  0
 19 27  1  0
 27 28  1  6
 27 29  1  0
 29 30  1  0
 30 31  1  0
 31 32  1  6
  7  5  1  0
 31 10  1  0
 31 13  1  0
 27 15  1  0
 24 18  1  0
  1 33  1  0
  1 34  1  0
  1 35  1  0
  2 36  1  6
  3 37  1  0
  3 38  1  0
  4 39  1  0
  4 40  1  0
  5 41  1  1
  8 42  1  0
  8 43  1  0
  8 44  1  0
  9 45  1  0
  9 46  1  0
  9 47  1  0
 10 48  1  1
 11 49  1  0
 11 50  1  0
 12 51  1  0
 12 52  1  0
 14 53  1  0
 14 54  1  0
 14 55  1  0
 15 56  1  6
 16 57  1  0
 16 58  1  0
 17 59  1  0
 19 60  1  1
 20 61  1  0
 20 62  1  0
 21 63  1  0
 21 64  1  0
 22 65  1  1
 23 66  1  0
 25 67  1  0
 25 68  1  0
 25 69  1  0
 26 70  1  0
 26 71  1  0
 26 72  1  0
 28 73  1  0
 28 74  1  0
 28 75  1  0
 29 76  1  0
 29 77  1  0
 30 78  1  0
 30 79  1  0
 32 80  1  0
 32 81  1  0
 32 82  1  0
M  END
>  <meeko>  (9) 
{"is_sidechain": [false], "intermolecular_energy": 2.731, "internal_energy": -0.839}

$$$$
EPH_relaxed_0001_pdb2pqr_Repair_272_r2_0001_out
     RDKit          3D

 82 86  0  0  0  0  0  0  0  0999 V2000
    0.4120    8.8980   -2.5160 C   0  0  0  0  0  0  0  0  0  0  0  0
    1.1800   10.0540   -3.1630 C   0  0  2  0  0  0  0  0  0  0  0  0
    2.6720   10.0520   -2.7740 C   0  0  0  0  0  0  0  0  0  0  0  0
    3.5910   10.6250   -3.8560 C   0  0  0  0  0  0  0  0  0  0  0  0
    4.9840   10.8350   -3.3450 C   0  0  2  0  0  0  0  0  0  0  0  0
    5.6020   12.0540   -3.7770 O   0  0  0  0  0  0  0  0  0  0  0  0
    6.2110   10.8370   -4.2370 C   0  0  0  0  0  0  0  0  0  0  0  0
    6.1020   10.6230   -5.7150 C   0  0  0  0  0  0  0  0  0  0  0  0
    7.5460   10.5590   -3.6190 C   0  0  0  0  0  0  0  0  0  0  0  0
    0.5420   11.3830   -2.7740 C   0  0  1  0  0  0  0  0  0  0  0  0
   -0.8350   11.2050   -2.0820 C   0  0  0  0  0  0  0  0  0  0  0  0
   -0.9500   12.3280   -1.0190 C   0  0  0  0  0  0  0  0  0  0  0  0
    0.2020   13.3040   -1.3570 C   0  0  1  0  0  0  0  0  0  0  0  0
   -0.3460   14.1820   -2.5250 C   0  0  0  0  0  0  0  0  0  0  0  0
    0.7330   14.1810   -0.1760 C   0  0  2  0  0  0  0  0  0  0  0  0
   -0.2960   15.1490    0.4320 C   0  0  0  0  0  0  0  0  0  0  0  0
   -0.3380   16.5070   -0.1870 C   0  0  0  0  0  0  0  0  0  0  0  0
    0.6050   17.0280   -0.9940 C   0  0  0  0  0  0  0  0  0  0  0  0
    1.9050   16.2660   -1.2810 C   0  0  1  0  0  0  0  0  0  0  0  0
    3.1130   17.2280   -1.1350 C   0  0  0  0  0  0  0  0  0  0  0  0
    2.9690   18.4810   -1.9940 C   0  0  0  0  0  0  0  0  0  0  0  0
    1.6940   19.2420   -1.6390 C   0  0  2  0  0  0  0  0  0  0  0  0
    1.8210   19.7600   -0.3110 O   0  0  0  0  0  0  0  0  0  0  0  0
    0.4120   18.3700   -1.7410 C   0  0  0  0  0  0  0  0  0  0  0  0
    0.1100   18.0610   -3.2280 C   0  0  0  0  0  0  0  0  0  0  0  0
   -0.7830   19.2160   -1.2230 C   0  0  0  0  0  0  0  0  0  0  0  0
    2.1050   14.9090   -0.4760 C   0  0  1  0  0  0  0  0  0  0  0  0
    2.7650   15.2030    0.9050 C   0  0  0  0  0  0  0  0  0  0  0  0
    3.1120   13.9890   -1.2630 C   0  0  0  0  0  0  0  0  0  0  0  0
    2.5110   13.0590   -2.3340 C   0  0  0  0  0  0  0  0  0  0  0  0
    1.3170   12.2780   -1.7750 C   0  0  2  0  0  0  0  0  0  0  0  0
    1.8420   11.3690   -0.6120 C   0  0  0  0  0  0  0  0  0  0  0  0
    0.4706    8.9862   -1.4211 H   0  0  0  0  0  0  0  0  0  0  0  0
   -0.6412    8.9357   -2.8311 H   0  0  0  0  0  0  0  0  0  0  0  0
    0.8550    7.9417   -2.8311 H   0  0  0  0  0  0  0  0  0  0  0  0
    1.1241    9.9187   -4.2532 H   0  0  0  0  0  0  0  0  0  0  0  0
    2.7936   10.6533   -1.8610 H   0  0  0  0  0  0  0  0  0  0  0  0
    2.9644    9.0018   -2.6271 H   0  0  0  0  0  0  0  0  0  0  0  0
    3.6239    9.9246   -4.7035 H   0  0  0  0  0  0  0  0  0  0  0  0
    3.1887   11.6005   -4.1666 H   0  0  0  0  0  0  0  0  0  0  0  0
    4.7493   10.2970   -2.4147 H   0  0  0  0  0  0  0  0  0  0  0  0
    5.6107    9.6584   -5.9106 H   0  0  0  0  0  0  0  0  0  0  0  0
    5.5073   11.4343   -6.1601 H   0  0  0  0  0  0  0  0  0  0  0  0
    7.1079   10.6190   -6.1601 H   0  0  0  0  0  0  0  0  0  0  0  0
    7.4538   10.5782   -2.5230 H   0  0  0  0  0  0  0  0  0  0  0  0
    7.8994    9.5680   -3.9399 H   0  0  0  0  0  0  0  0  0  0  0  0
    8.2656   11.3266   -3.9399 H   0  0  0  0  0  0  0  0  0  0  0  0
    0.5052   11.8659   -3.7617 H   0  0  0  0  0  0  0  0  0  0  0  0
   -1.6449   11.2981   -2.8205 H   0  0  0  0  0  0  0  0  0  0  0  0
   -0.9180   10.2114   -1.6174 H   0  0  0  0  0  0  0  0  0  0  0  0
   -1.9232   12.8352   -1.0935 H   0  0  0  0  0  0  0  0  0  0  0  0
   -0.8802   11.9395    0.0078 H   0  0  0  0  0  0  0  0  0  0  0  0
   -0.8857   15.0468   -2.1116 H   0  0  0  0  0  0  0  0  0  0  0  0
    0.4927   14.5346   -3.1433 H   0  0  0  0  0  0  0  0  0  0  0  0
   -1.0312   13.5835   -3.1433 H   0  0  0  0  0  0  0  0  0  0  0  0
    0.9333   13.4310    0.6033 H   0  0  0  0  0  0  0  0  0  0  0  0
   -1.2928   14.6961    0.3257 H   0  0  0  0  0  0  0  0  0  0  0  0
    0.0100   15.3007    1.4776 H   0  0  0  0  0  0  0  0  0  0  0  0
   -1.2135   17.1348    0.0352 H   0  0  0  0  0  0  0  0  0  0  0  0
    1.8296   15.9175   -2.3216 H   0  0  0  0  0  0  0  0  0  0  0  0
    3.1976   17.5307   -0.0809 H   0  0  0  0  0  0  0  0  0  0  0  0
    4.0109   16.6911   -1.4747 H   0  0  0  0  0  0  0  0  0  0  0  0
    3.8373   19.1349   -1.8254 H   0  0  0  0  0  0  0  0  0  0  0  0
    2.9149   18.1784   -3.0502 H   0  0  0  0  0  0  0  0  0  0  0  0
    1.5790   20.0541   -2.3720 H   0  0  0  0  0  0  0  0  0  0  0  0
    0.9690   20.1630   -0.0710 H   0  0  0  0  0  0  0  0  0  0  0  0
   -0.6576   17.2756   -3.2907 H   0  0  0  0  0  0  0  0  0  0  0  0
   -0.2558   18.9717   -3.7248 H   0  0  0  0  0  0  0  0  0  0  0  0
    1.0289   17.7162   -3.7248 H   0  0  0  0  0  0  0  0  0  0  0  0
   -0.7828   19.2159   -0.1230 H   0  0  0  0  0  0  0  0  0  0  0  0
   -0.6873   20.2487   -1.5896 H   0  0  0  0  0  0  0  0  0  0  0  0
   -1.7252   18.7826   -1.5896 H   0  0  0  0  0  0  0  0  0  0  0  0
    2.0809   14.8982    1.7107 H   0  0  0  0  0  0  0  0  0  0  0  0
    3.7054   14.6387    0.9895 H   0  0  0  0  0  0  0  0  0  0  0  0
    2.9745   16.2796    0.9895 H   0  0  0  0  0  0  0  0  0  0  0  0
    3.8409   14.6443   -1.7623 H   0  0  0  0  0  0  0  0  0  0  0  0
    3.5402   13.3165   -0.5051 H   0  0  0  0  0  0  0  0  0  0  0  0
    2.1764   13.6643   -3.1894 H   0  0  0  0  0  0  0  0  0  0  0  0
    3.2831   12.3414   -2.6485 H   0  0  0  0  0  0  0  0  0  0  0  0
    1.5798   11.8229    0.3551 H   0  0  0  0  0  0  0  0  0  0  0  0
    1.3796   10.3737   -0.6872 H   0  0  0  0  0  0  0  0  0  0  0  0
    2.9351   11.2721   -0.6872 H   0  0  0  0  0  0  0  0  0  0  0  0
  1  2  1  0
  2  3  1  0
  3  4  1  0
  4  5  1  0
  5  6  1  0
  6  7  1  0
  7  8  1  0
  7  9  1  0
  2 10  1  0
 10 11  1  0
 11 12  1  0
 12 13  1  0
 13 14  1  6
 13 15  1  0
 15 16  1  0
 16 17  1  0
 17 18  2  0
 18 19  1  0
 19 20  1  0
 20 21  1  0
 21 22  1  0
 22 23  1  0
 22 24  1  0
 24 25  1  0
 24 26  1  0
 19 27  1  0
 27 28  1  1
 27 29  1  0
 29 30  1  0
 30 31  1  0
 31 32  1  1
  7  5  1  0
 31 10  1  0
 31 13  1  0
 27 15  1  0
 24 18  1  0
  1 33  1  0
  1 34  1  0
  1 35  1  0
  2 36  1  6
  3 37  1  0
  3 38  1  0
  4 39  1  0
  4 40  1  0
  5 41  1  1
  8 42  1  0
  8 43  1  0
  8 44  1  0
  9 45  1  0
  9 46  1  0
  9 47  1  0
 10 48  1  6
 11 49  1  0
 11 50  1  0
 12 51  1  0
 12 52  1  0
 14 53  1  0
 14 54  1  0
 14 55  1  0
 15 56  1  1
 16 57  1  0
 16 58  1  0
 17 59  1  0
 19 60  1  6
 20 61  1  0
 20 62  1  0
 21 63  1  0
 21 64  1  0
 22 65  1  6
 23 66  1  0
 25 67  1  0
 25 68  1  0
 25 69  1  0
 26 70  1  0
 26 71  1  0
 26 72  1  0
 28 73  1  0
 28 74  1  0
 28 75  1  0
 29 76  1  0
 29 77  1  0
 30 78  1  0
 30 79  1  0
 32 80  1  0
 32 81  1  0
 32 82  1  0
M  END
>  <meeko>  (10) 
{"is_sidechain": [false], "intermolecular_energy": 2.731, "internal_energy": -0.839}

$$$$
EPH_relaxed_0001_pdb2pqr_Repair_272_r2_0001_out
     RDKit          3D

 82 86  0  0  0  0  0  0  0  0999 V2000
    3.5900   18.4570   -2.4910 C   0  0  0  0  0  0  0  0  0  0  0  0
    2.2960   17.6740   -2.7330 C   0  0  2  0  0  0  0  0  0  0  0  0
    1.0440   18.4920   -2.3610 C   0  0  0  0  0  0  0  0  0  0  0  0
    1.0730   19.0480   -0.9340 C   0  0  0  0  0  0  0  0  0  0  0  0
   -0.1420   19.8740   -0.6360 C   0  0  2  0  0  0  0  0  0  0  0  0
   -0.3220   20.1940    0.7490 O   0  0  0  0  0  0  0  0  0  0  0  0
   -1.3290   19.3590    0.1550 C   0  0  0  0  0  0  0  0  0  0  0  0
   -1.3610   17.9640    0.6970 C   0  0  0  0  0  0  0  0  0  0  0  0
   -2.6520   20.0390   -0.0160 C   0  0  0  0  0  0  0  0  0  0  0  0
    2.3220   16.3710   -1.9420 C   0  0  1  0  0  0  0  0  0  0  0  0
    2.5750   16.5970   -0.4270 C   0  0  0  0  0  0  0  0  0  0  0  0
    1.7530   15.5210    0.3290 C   0  0  0  0  0  0  0  0  0  0  0  0
    1.3250   14.5170   -0.7660 C   0  0  1  0  0  0  0  0  0  0  0  0
    2.5690   13.5980   -0.9770 C   0  0  0  0  0  0  0  0  0  0  0  0
    0.0350   13.6830   -0.4720 C   0  0  2  0  0  0  0  0  0  0  0  0
    0.1230   12.7550    0.7520 C   0  0  0  0  0  0  0  0  0  0  0  0
    0.6130   11.3730    0.4710 C   0  0  0  0  0  0  0  0  0  0  0  0
    0.6980   10.8060   -0.7470 C   0  0  0  0  0  0  0  0  0  0  0  0
    0.1860   11.5380   -1.9940 C   0  0  1  0  0  0  0  0  0  0  0  0
   -0.6670   10.5650   -2.8510 C   0  0  0  0  0  0  0  0  0  0  0  0
    0.0800    9.2800   -3.1940 C   0  0  0  0  0  0  0  0  0  0  0  0
    0.5220    8.5520   -1.9270 C   0  0  2  0  0  0  0  0  0  0  0  0
   -0.6390    8.0890   -1.2320 O   0  0  0  0  0  0  0  0  0  0  0  0
    1.3810    9.4360   -0.9800 C   0  0  0  0  0  0  0  0  0  0  0  0
    2.7690    9.6870   -1.6190 C   0  0  0  0  0  0  0  0  0  0  0  0
    1.6410    8.6290    0.3200 C   0  0  0  0  0  0  0  0  0  0  0  0
   -0.5470   12.9240   -1.7320 C   0  0  1  0  0  0  0  0  0  0  0  0
   -2.0600   12.6800   -1.4460 C   0  0  0  0  0  0  0  0  0  0  0  0
   -0.4780   13.7960   -3.0410 C   0  0  0  0  0  0  0  0  0  0  0  0
    0.7650   14.6890   -3.2160 C   0  0  0  0  0  0  0  0  0  0  0  0
    1.0350   15.5080   -1.9510 C   0  0  2  0  0  0  0  0  0  0  0  0
   -0.1910   16.4580   -1.7260 C   0  0  0  0  0  0  0  0  0  0  0  0
    3.7596   18.5596   -1.4090 H   0  0  0  0  0  0  0  0  0  0  0  0
    4.4348   17.9184   -2.9451 H   0  0  0  0  0  0  0  0  0  0  0  0
    3.5049   19.4553   -2.9451 H   0  0  0  0  0  0  0  0  0  0  0  0
    2.2380   17.4545   -3.8093 H   0  0  0  0  0  0  0  0  0  0  0  0
    0.9603   19.3364   -3.0610 H   0  0  0  0  0  0  0  0  0  0  0  0
    0.1840   17.8089   -2.4223 H   0  0  0  0  0  0  0  0  0  0  0  0
    1.1157   18.2081   -0.2250 H   0  0  0  0  0  0  0  0  0  0  0  0
    1.9587   19.6928   -0.8351 H   0  0  0  0  0  0  0  0  0  0  0  0
   -0.0680   20.3784   -1.6107 H   0  0  0  0  0  0  0  0  0  0  0  0
   -1.3602   17.9977    1.7965 H   0  0  0  0  0  0  0  0  0  0  0  0
   -2.2711   17.4552    0.3464 H   0  0  0  0  0  0  0  0  0  0  0  0
   -0.4752   17.4140    0.3464 H   0  0  0  0  0  0  0  0  0  0  0  0
   -3.0813   20.2597    0.9724 H   0  0  0  0  0  0  0  0  0  0  0  0
   -2.5127   20.9773   -0.5730 H   0  0  0  0  0  0  0  0  0  0  0  0
   -3.3339   19.3796   -0.5730 H   0  0  0  0  0  0  0  0  0  0  0  0
    3.1299   15.8478   -2.4744 H   0  0  0  0  0  0  0  0  0  0  0  0
    3.6455   16.4842   -0.2007 H   0  0  0  0  0  0  0  0  0  0  0  0
    2.2736   17.6103   -0.1230 H   0  0  0  0  0  0  0  0  0  0  0  0
    2.3714   15.0243    1.0911 H   0  0  0  0  0  0  0  0  0  0  0  0
    0.8913   15.9512    0.8605 H   0  0  0  0  0  0  0  0  0  0  0  0
    2.9740   13.2988    0.0010 H   0  0  0  0  0  0  0  0  0  0  0  0
    2.2712   12.7014   -1.5404 H   0  0  0  0  0  0  0  0  0  0  0  0
    3.3385   14.1462   -1.5404 H   0  0  0  0  0  0  0  0  0  0  0  0
   -0.6937   14.4622   -0.2042 H   0  0  0  0  0  0  0  0  0  0  0  0
    0.8065   13.2165    1.4799 H   0  0  0  0  0  0  0  0  0  0  0  0
   -0.9063   12.6431    1.1235 H   0  0  0  0  0  0  0  0  0  0  0  0
    0.9315   10.7669    1.3319 H   0  0  0  0  0  0  0  0  0  0  0  0
    1.0803   11.8448   -2.5562 H   0  0  0  0  0  0  0  0  0  0  0  0
   -1.5765   10.3051   -2.2895 H   0  0  0  0  0  0  0  0  0  0  0  0
   -0.9067   11.0745   -3.7960 H   0  0  0  0  0  0  0  0  0  0  0  0
   -0.5832    8.6220   -3.7747 H   0  0  0  0  0  0  0  0  0  0  0  0
    0.9739    9.5390   -3.7805 H   0  0  0  0  0  0  0  0  0  0  0  0
    1.1609    7.7115   -2.2359 H   0  0  0  0  0  0  0  0  0  0  0  0
   -1.1530    7.5400   -1.8490 H   0  0  0  0  0  0  0  0  0  0  0  0
    3.5188    9.8226   -0.8256 H   0  0  0  0  0  0  0  0  0  0  0  0
    3.0469    8.8245   -2.2426 H   0  0  0  0  0  0  0  0  0  0  0  0
    2.7273   10.5922   -2.2426 H   0  0  0  0  0  0  0  0  0  0  0  0
    1.4360    9.2652    1.1937 H   0  0  0  0  0  0  0  0  0  0  0  0
    0.9807    7.7495    0.3439 H   0  0  0  0  0  0  0  0  0  0  0  0
    2.6905    8.3004    0.3439 H   0  0  0  0  0  0  0  0  0  0  0  0
   -2.2280   12.6529   -0.3592 H   0  0  0  0  0  0  0  0  0  0  0  0
   -2.6528   13.4942   -1.8885 H   0  0  0  0  0  0  0  0  0  0  0  0
   -2.3668   11.7208   -1.8885 H   0  0  0  0  0  0  0  0  0  0  0  0
   -0.5188   13.1103   -3.9002 H   0  0  0  0  0  0  0  0  0  0  0  0
   -1.3254   14.4935   -2.9672 H   0  0  0  0  0  0  0  0  0  0  0  0
    1.6378   14.0534   -3.4261 H   0  0  0  0  0  0  0  0  0  0  0  0
    0.5835   15.3826   -4.0503 H   0  0  0  0  0  0  0  0  0  0  0  0
   -0.3601   16.5891   -0.6470 H   0  0  0  0  0  0  0  0  0  0  0  0
    0.0134   17.4358   -2.1865 H   0  0  0  0  0  0  0  0  0  0  0  0
   -1.0868   16.0159   -2.1865 H   0  0  0  0  0  0  0  0  0  0  0  0
  1  2  1  0
  2  3  1  0
  3  4  1  0
  4  5  1  0
  5  6  1  0
  6  7  1  0
  7  8  1  0
  7  9  1  0
  2 10  1  0
 10 11  1  0
 11 12  1  0
 12 13  1  0
 13 14  1  6
 13 15  1  0
 15 16  1  0
 16 17  1  0
 17 18  2  0
 18 19  1  0
 19 20  1  0
 20 21  1  0
 21 22  1  0
 22 23  1  0
 22 24  1  0
 24 25  1  0
 24 26  1  0
 19 27  1  0
 27 28  1  1
 27 29  1  0
 29 30  1  0
 30 31  1  0
 31 32  1  1
  7  5  1  0
 31 10  1  0
 31 13  1  0
 27 15  1  0
 24 18  1  0
  1 33  1  0
  1 34  1  0
  1 35  1  0
  2 36  1  6
  3 37  1  0
  3 38  1  0
  4 39  1  0
  4 40  1  0
  5 41  1  6
  8 42  1  0
  8 43  1  0
  8 44  1  0
  9 45  1  0
  9 46  1  0
  9 47  1  0
 10 48  1  6
 11 49  1  0
 11 50  1  0
 12 51  1  0
 12 52  1  0
 14 53  1  0
 14 54  1  0
 14 55  1  0
 15 56  1  1
 16 57  1  0
 16 58  1  0
 17 59  1  0
 19 60  1  6
 20 61  1  0
 20 62  1  0
 21 63  1  0
 21 64  1  0
 22 65  1  6
 23 66  1  0
 25 67  1  0
 25 68  1  0
 25 69  1  0
 26 70  1  0
 26 71  1  0
 26 72  1  0
 28 73  1  0
 28 74  1  0
 28 75  1  0
 29 76  1  0
 29 77  1  0
 30 78  1  0
 30 79  1  0
 32 80  1  0
 32 81  1  0
 32 82  1  0
M  END
>  <meeko>  (11) 
{"is_sidechain": [false], "intermolecular_energy": 2.731, "internal_energy": -0.839}

$$$$
EPH_relaxed_0001_pdb2pqr_Repair_272_r2_0001_out
     RDKit          3D

 82 86  0  0  0  0  0  0  0  0999 V2000
   -3.7110    7.2280   -3.4370 C   0  0  0  0  0  0  0  0  0  0  0  0
   -3.7230    7.2930   -1.9070 C   0  0  2  0  0  0  0  0  0  0  0  0
   -5.1320    7.0570   -1.3270 C   0  0  0  0  0  0  0  0  0  0  0  0
   -6.2520    7.1760   -2.3640 C   0  0  0  0  0  0  0  0  0  0  0  0
   -7.5790    7.4400   -1.7180 C   0  0  2  0  0  0  0  0  0  0  0  0
   -8.2070    6.2850   -1.1460 O   0  0  0  0  0  0  0  0  0  0  0  0
   -8.8910    6.8970   -2.2510 C   0  0  0  0  0  0  0  0  0  0  0  0
   -8.9420    6.0470   -3.4820 C   0  0  0  0  0  0  0  0  0  0  0  0
  -10.1620    7.5890   -1.8650 C   0  0  0  0  0  0  0  0  0  0  0  0
   -3.1860    8.6410   -1.4400 C   0  0  1  0  0  0  0  0  0  0  0  0
   -3.8050    9.0960   -0.0910 C   0  0  0  0  0  0  0  0  0  0  0  0
   -2.6930    9.8540    0.6780 C   0  0  0  0  0  0  0  0  0  0  0  0
   -1.5870   10.0990   -0.3750 C   0  0  1  0  0  0  0  0  0  0  0  0
   -2.0640   11.3530   -1.1730 C   0  0  0  0  0  0  0  0  0  0  0  0
   -0.1360   10.2830    0.1770 C   0  0  2  0  0  0  0  0  0  0  0  0
    0.0630   11.5030    1.0930 C   0  0  0  0  0  0  0  0  0  0  0  0
    0.4680   12.7620    0.4000 C   0  0  0  0  0  0  0  0  0  0  0  0
    0.9390   12.8450   -0.8590 C   0  0  0  0  0  0  0  0  0  0  0  0
    1.1980   11.5810   -1.6880 C   0  0  1  0  0  0  0  0  0  0  0  0
    2.5870   11.6850   -2.3710 C   0  0  0  0  0  0  0  0  0  0  0  0
    2.7420   12.9620   -3.1900 C   0  0  0  0  0  0  0  0  0  0  0  0
    2.5350   14.1980   -2.3190 C   0  0  2  0  0  0  0  0  0  0  0  0
    3.6030   14.2770   -1.3700 O   0  0  0  0  0  0  0  0  0  0  0  0
    1.1720   14.2000   -1.5720 C   0  0  0  0  0  0  0  0  0  0  0  0
    0.0230   14.4180   -2.5870 C   0  0  0  0  0  0  0  0  0  0  0  0
    1.1500   15.4270   -0.6220 C   0  0  0  0  0  0  0  0  0  0  0  0
    0.9930   10.2000   -0.9290 C   0  0  1  0  0  0  0  0  0  0  0  0
    2.3080    9.7970   -0.1930 C   0  0  0  0  0  0  0  0  0  0  0  0
    0.7120    9.0680   -1.9870 C   0  0  0  0  0  0  0  0  0  0  0  0
   -0.7560    8.8550   -2.4020 C   0  0  0  0  0  0  0  0  0  0  0  0
   -1.6640    8.7470   -1.1730 C   0  0  2  0  0  0  0  0  0  0  0  0
   -1.2220    7.4810   -0.3620 C   0  0  0  0  0  0  0  0  0  0  0  0
   -3.5200    6.1935   -3.7586 H   0  0  0  0  0  0  0  0  0  0  0  0
   -4.6854    7.5588   -3.8257 H   0  0  0  0  0  0  0  0  0  0  0  0
   -2.9190    7.8849   -3.8257 H   0  0  0  0  0  0  0  0  0  0  0  0
   -3.0742    6.4859   -1.5361 H   0  0  0  0  0  0  0  0  0  0  0  0
   -5.1648    6.0460   -0.8948 H   0  0  0  0  0  0  0  0  0  0  0  0
   -5.3056    7.8407   -0.5749 H   0  0  0  0  0  0  0  0  0  0  0  0
   -6.0176    8.0044   -3.0487 H   0  0  0  0  0  0  0  0  0  0  0  0
   -6.3188    6.2223   -2.9081 H   0  0  0  0  0  0  0  0  0  0  0  0
   -7.2629    8.4530   -1.4282 H   0  0  0  0  0  0  0  0  0  0  0  0
   -9.0056    4.9874   -3.1936 H   0  0  0  0  0  0  0  0  0  0  0  0
   -9.8255    6.3183   -4.0785 H   0  0  0  0  0  0  0  0  0  0  0  0
   -8.0324    6.2107   -4.0785 H   0  0  0  0  0  0  0  0  0  0  0  0
  -10.2384    7.6306   -0.7684 H   0  0  0  0  0  0  0  0  0  0  0  0
  -10.1611    8.6111   -2.2715 H   0  0  0  0  0  0  0  0  0  0  0  0
  -11.0200    7.0335   -2.2715 H   0  0  0  0  0  0  0  0  0  0  0  0
   -3.4596    9.2586   -2.3082 H   0  0  0  0  0  0  0  0  0  0  0  0
   -4.6614    9.7620   -0.2727 H   0  0  0  0  0  0  0  0  0  0  0  0
   -4.1682    8.2339    0.4877 H   0  0  0  0  0  0  0  0  0  0  0  0
   -3.0738   10.8085    1.0703 H   0  0  0  0  0  0  0  0  0  0  0  0
   -2.3246    9.2862    1.5451 H   0  0  0  0  0  0  0  0  0  0  0  0
   -2.3645   12.1431   -0.4691 H   0  0  0  0  0  0  0  0  0  0  0  0
   -1.2423   11.7191   -1.8061 H   0  0  0  0  0  0  0  0  0  0  0  0
   -2.9213   11.0805   -1.8061 H   0  0  0  0  0  0  0  0  0  0  0  0
   -0.0150    9.4012    0.8234 H   0  0  0  0  0  0  0  0  0  0  0  0
   -0.8856   11.6933    1.6164 H   0  0  0  0  0  0  0  0  0  0  0  0
    0.8940   11.2456    1.7662 H   0  0  0  0  0  0  0  0  0  0  0  0
    0.3737   13.7008    0.9654 H   0  0  0  0  0  0  0  0  0  0  0  0
    0.4076   11.5516   -2.4525 H   0  0  0  0  0  0  0  0  0  0  0  0
    3.3645   11.6685   -1.5931 H   0  0  0  0  0  0  0  0  0  0  0  0
    2.6850   10.8328   -3.0596 H   0  0  0  0  0  0  0  0  0  0  0  0
    3.7530   12.9917   -3.6224 H   0  0  0  0  0  0  0  0  0  0  0  0
    1.9827   12.9626   -3.9859 H   0  0  0  0  0  0  0  0  0  0  0  0
    2.5291   15.0735   -2.9850 H   0  0  0  0  0  0  0  0  0  0  0  0
    4.3590   13.7870   -1.7360 H   0  0  0  0  0  0  0  0  0  0  0  0
   -0.9169   14.5963   -2.0441 H   0  0  0  0  0  0  0  0  0  0  0  0
    0.2523   15.2887   -3.2190 H   0  0  0  0  0  0  0  0  0  0  0  0
   -0.0826   13.5239   -3.2190 H   0  0  0  0  0  0  0  0  0  0  0  0
    1.1562   15.0822    0.4225 H   0  0  0  0  0  0  0  0  0  0  0  0
    2.0371   16.0504   -0.8076 H   0  0  0  0  0  0  0  0  0  0  0  0
    0.2411   16.0182   -0.8076 H   0  0  0  0  0  0  0  0  0  0  0  0
    2.1493    9.8457    0.8944 H   0  0  0  0  0  0  0  0  0  0  0  0
    2.5879    8.7719   -0.4772 H   0  0  0  0  0  0  0  0  0  0  0  0
    3.1142   10.4893   -0.4772 H   0  0  0  0  0  0  0  0  0  0  0  0
    1.2826    9.3121   -2.8952 H   0  0  0  0  0  0  0  0  0  0  0  0
    1.0106    8.1315   -1.4932 H   0  0  0  0  0  0  0  0  0  0  0  0
   -1.0830    9.7063   -3.0171 H   0  0  0  0  0  0  0  0  0  0  0  0
   -0.8262    7.9174   -2.9729 H   0  0  0  0  0  0  0  0  0  0  0  0
   -1.2955    7.6915    0.7152 H   0  0  0  0  0  0  0  0  0  0  0  0
   -1.8781    6.6354   -0.6160 H   0  0  0  0  0  0  0  0  0  0  0  0
   -0.1822    7.2275   -0.6160 H   0  0  0  0  0  0  0  0  0  0  0  0
  1  2  1  0
  2  3  1  0
  3  4  1  0
  4  5  1  0
  5  6  1  0
  6  7  1  0
  7  8  1  0
  7  9  1  0
  2 10  1  0
 10 11  1  0
 11 12  1  0
 12 13  1  0
 13 14  1  6
 13 15  1  0
 15 16  1  0
 16 17  1  0
 17 18  2  0
 18 19  1  0
 19 20  1  0
 20 21  1  0
 21 22  1  0
 22 23  1  0
 22 24  1  0
 24 25  1  0
 24 26  1  0
 19 27  1  0
 27 28  1  1
 27 29  1  0
 29 30  1  0
 30 31  1  0
 31 32  1  1
  7  5  1  0
 31 10  1  0
 31 13  1  0
 27 15  1  0
 24 18  1  0
  1 33  1  0
  1 34  1  0
  1 35  1  0
  2 36  1  1
  3 37  1  0
  3 38  1  0
  4 39  1  0
  4 40  1  0
  5 41  1  1
  8 42  1  0
  8 43  1  0
  8 44  1  0
  9 45  1  0
  9 46  1  0
  9 47  1  0
 10 48  1  6
 11 49  1  0
 11 50  1  0
 12 51  1  0
 12 52  1  0
 14 53  1  0
 14 54  1  0
 14 55  1  0
 15 56  1  1
 16 57  1  0
 16 58  1  0
 17 59  1  0
 19 60  1  6
 20 61  1  0
 20 62  1  0
 21 63  1  0
 21 64  1  0
 22 65  1  6
 23 66  1  0
 25 67  1  0
 25 68  1  0
 25 69  1  0
 26 70  1  0
 26 71  1  0
 26 72  1  0
 28 73  1  0
 28 74  1  0
 28 75  1  0
 29 76  1  0
 29 77  1  0
 30 78  1  0
 30 79  1  0
 32 80  1  0
 32 81  1  0
 32 82  1  0
M  END
>  <meeko>  (12) 
{"is_sidechain": [false], "intermolecular_energy": 2.731, "internal_energy": -0.839}

$$$$
EPH_relaxed_0001_pdb2pqr_Repair_272_r2_0001_out
     RDKit          3D

 82 86  0  0  0  0  0  0  0  0999 V2000
   -0.2940   15.0730   -7.6610 C   0  0  0  0  0  0  0  0  0  0  0  0
    1.0740   15.0640   -6.9730 C   0  0  2  0  0  0  0  0  0  0  0  0
    2.2330   15.1590   -7.9850 C   0  0  0  0  0  0  0  0  0  0  0  0
    2.2600   16.4740   -8.7680 C   0  0  0  0  0  0  0  0  0  0  0  0
    1.8610   16.2760  -10.1990 C   0  0  2  0  0  0  0  0  0  0  0  0
    1.2040   15.0310  -10.4700 O   0  0  0  0  0  0  0  0  0  0  0  0
    2.4800   15.2260  -11.1020 C   0  0  0  0  0  0  0  0  0  0  0  0
    3.5510   14.3040  -10.6080 C   0  0  0  0  0  0  0  0  0  0  0  0
    2.3960   15.4170  -12.5850 C   0  0  0  0  0  0  0  0  0  0  0  0
    1.2220   13.8050   -6.1270 C   0  0  1  0  0  0  0  0  0  0  0  0
    2.6550   13.2120   -6.1850 C   0  0  0  0  0  0  0  0  0  0  0  0
    2.9500   12.6170   -4.7840 C   0  0  0  0  0  0  0  0  0  0  0  0
    1.5750   12.5880   -4.0760 C   0  0  1  0  0  0  0  0  0  0  0  0
    0.8750   11.3010   -4.6140 C   0  0  0  0  0  0  0  0  0  0  0  0
    1.6030   12.6200   -2.5130 C   0  0  2  0  0  0  0  0  0  0  0  0
    2.2950   11.4180   -1.8470 C   0  0  0  0  0  0  0  0  0  0  0  0
    1.4030   10.2640   -1.5290 C   0  0  0  0  0  0  0  0  0  0  0  0
    0.0580   10.2990   -1.5030 C   0  0  0  0  0  0  0  0  0  0  0  0
   -0.7000   11.6160   -1.7180 C   0  0  1  0  0  0  0  0  0  0  0  0
   -1.8070   11.7580   -0.6410 C   0  0  0  0  0  0  0  0  0  0  0  0
   -2.7380   10.5500   -0.5950 C   0  0  0  0  0  0  0  0  0  0  0  0
   -1.9550    9.2690   -0.3210 C   0  0  2  0  0  0  0  0  0  0  0  0
   -1.4200    9.3300    1.0050 O   0  0  0  0  0  0  0  0  0  0  0  0
   -0.8050    9.0240   -1.3380 C   0  0  0  0  0  0  0  0  0  0  0  0
   -1.4020    8.6580   -2.7200 C   0  0  0  0  0  0  0  0  0  0  0  0
   -0.0080    7.7780   -0.8660 C   0  0  0  0  0  0  0  0  0  0  0  0
    0.1990   12.9200   -1.8460 C   0  0  1  0  0  0  0  0  0  0  0  0
    0.4940   13.5040   -0.4310 C   0  0  0  0  0  0  0  0  0  0  0  0
   -0.6080   14.0260   -2.6230 C   0  0  0  0  0  0  0  0  0  0  0  0
   -0.4990   14.0160   -4.1600 C   0  0  0  0  0  0  0  0  0  0  0  0
    0.9650   13.9360   -4.6050 C   0  0  2  0  0  0  0  0  0  0  0  0
    1.6900   15.2280   -4.0970 C   0  0  0  0  0  0  0  0  0  0  0  0
   -1.0875   15.0782   -6.8992 H   0  0  0  0  0  0  0  0  0  0  0  0
   -0.3827   15.9717   -8.2890 H   0  0  0  0  0  0  0  0  0  0  0  0
   -0.3945   14.1755   -8.2890 H   0  0  0  0  0  0  0  0  0  0  0  0
    1.1261   15.9532   -6.3275 H   0  0  0  0  0  0  0  0  0  0  0  0
    3.1816   15.0618   -7.4367 H   0  0  0  0  0  0  0  0  0  0  0  0
    2.0870   14.3516   -8.7176 H   0  0  0  0  0  0  0  0  0  0  0  0
    1.5622   17.1829   -8.2983 H   0  0  0  0  0  0  0  0  0  0  0  0
    3.2889   16.8626   -8.7498 H   0  0  0  0  0  0  0  0  0  0  0  0
    1.6977   17.3561  -10.3279 H   0  0  0  0  0  0  0  0  0  0  0  0
    3.5540   14.3015   -9.5080 H   0  0  0  0  0  0  0  0  0  0  0  0
    3.3570   13.2859  -10.9765 H   0  0  0  0  0  0  0  0  0  0  0  0
    4.5290   14.6472  -10.9765 H   0  0  0  0  0  0  0  0  0  0  0  0
    1.9620   16.4038  -12.8036 H   0  0  0  0  0  0  0  0  0  0  0  0
    3.4043   15.3553  -13.0203 H   0  0  0  0  0  0  0  0  0  0  0  0
    1.7600   14.6322  -13.0203 H   0  0  0  0  0  0  0  0  0  0  0  0
    0.4421   13.1808   -6.5876 H   0  0  0  0  0  0  0  0  0  0  0  0
    2.7080   12.4235   -6.9502 H   0  0  0  0  0  0  0  0  0  0  0  0
    3.3919   13.9849   -6.4490 H   0  0  0  0  0  0  0  0  0  0  0  0
    3.3629   11.6013   -4.8724 H   0  0  0  0  0  0  0  0  0  0  0  0
    3.6935   13.2069   -4.2280 H   0  0  0  0  0  0  0  0  0  0  0  0
    0.5397   10.6846   -3.7669 H   0  0  0  0  0  0  0  0  0  0  0  0
    0.0070   11.5848   -5.2272 H   0  0  0  0  0  0  0  0  0  0  0  0
    1.5849   10.7265   -5.2272 H   0  0  0  0  0  0  0  0  0  0  0  0
    2.2476   13.4872   -2.3070 H   0  0  0  0  0  0  0  0  0  0  0  0
    3.0836   11.0610   -2.5257 H   0  0  0  0  0  0  0  0  0  0  0  0
    2.6760   11.7829   -0.8818 H   0  0  0  0  0  0  0  0  0  0  0  0
    1.8861    9.3036   -1.2962 H   0  0  0  0  0  0  0  0  0  0  0  0
   -1.1578   11.5445   -2.7157 H   0  0  0  0  0  0  0  0  0  0  0  0
   -1.3288   11.8722    0.3430 H   0  0  0  0  0  0  0  0  0  0  0  0
   -2.4144   12.6375   -0.9009 H   0  0  0  0  0  0  0  0  0  0  0  0
   -3.4793   10.6969    0.2043 H   0  0  0  0  0  0  0  0  0  0  0  0
   -3.2381   10.4544   -1.5701 H   0  0  0  0  0  0  0  0  0  0  0  0
   -2.6536    8.4262   -0.4290 H   0  0  0  0  0  0  0  0  0  0  0  0
   -0.4530    9.2470    0.9360 H   0  0  0  0  0  0  0  0  0  0  0  0
   -2.3320    8.0879   -2.5783 H   0  0  0  0  0  0  0  0  0  0  0  0
   -1.6184    9.5788   -3.2815 H   0  0  0  0  0  0  0  0  0  0  0  0
   -0.6795    8.0474   -3.2815 H   0  0  0  0  0  0  0  0  0  0  0  0
    0.0103    7.7493    0.2335 H   0  0  0  0  0  0  0  0  0  0  0  0
   -0.4914    6.8670   -1.2485 H   0  0  0  0  0  0  0  0  0  0  0  0
    1.0218    7.8349   -1.2485 H   0  0  0  0  0  0  0  0  0  0  0  0
    0.1390   12.8011    0.3371 H   0  0  0  0  0  0  0  0  0  0  0  0
    1.5773   13.6565   -0.3158 H   0  0  0  0  0  0  0  0  0  0  0  0
   -0.0261   14.4664   -0.3158 H   0  0  0  0  0  0  0  0  0  0  0  0
   -1.6704   13.9061   -2.3641 H   0  0  0  0  0  0  0  0  0  0  0  0
   -0.1615   14.9811   -2.3094 H   0  0  0  0  0  0  0  0  0  0  0  0
   -1.0430   13.1448   -4.5537 H   0  0  0  0  0  0  0  0  0  0  0  0
   -0.9335   14.9488   -4.5487 H   0  0  0  0  0  0  0  0  0  0  0  0
    1.6951   15.2371   -2.9970 H   0  0  0  0  0  0  0  0  0  0  0  0
    2.7253   15.2376   -4.4686 H   0  0  0  0  0  0  0  0  0  0  0  0
    1.1588   16.1167   -4.4686 H   0  0  0  0  0  0  0  0  0  0  0  0
  1  2  1  0
  2  3  1  0
  3  4  1  0
  4  5  1  0
  5  6  1  0
  6  7  1  0
  7  8  1  0
  7  9  1  0
  2 10  1  0
 10 11  1  0
 11 12  1  0
 12 13  1  0
 13 14  1  1
 13 15  1  0
 15 16  1  0
 16 17  1  0
 17 18  2  0
 18 19  1  0
 19 20  1  0
 20 21  1  0
 21 22  1  0
 22 23  1  0
 22 24  1  0
 24 25  1  0
 24 26  1  0
 19 27  1  0
 27 28  1  1
 27 29  1  0
 29 30  1  0
 30 31  1  0
 31 32  1  1
  7  5  1  0
 31 10  1  0
 31 13  1  0
 27 15  1  0
 24 18  1  0
  1 33  1  0
  1 34  1  0
  1 35  1  0
  2 36  1  1
  3 37  1  0
  3 38  1  0
  4 39  1  0
  4 40  1  0
  5 41  1  6
  8 42  1  0
  8 43  1  0
  8 44  1  0
  9 45  1  0
  9 46  1  0
  9 47  1  0
 10 48  1  6
 11 49  1  0
 11 50  1  0
 12 51  1  0
 12 52  1  0
 14 53  1  0
 14 54  1  0
 14 55  1  0
 15 56  1  6
 16 57  1  0
 16 58  1  0
 17 59  1  0
 19 60  1  6
 20 61  1  0
 20 62  1  0
 21 63  1  0
 21 64  1  0
 22 65  1  1
 23 66  1  0
 25 67  1  0
 25 68  1  0
 25 69  1  0
 26 70  1  0
 26 71  1  0
 26 72  1  0
 28 73  1  0
 28 74  1  0
 28 75  1  0
 29 76  1  0
 29 77  1  0
 30 78  1  0
 30 79  1  0
 32 80  1  0
 32 81  1  0
 32 82  1  0
M  END
>  <meeko>  (13) 
{"is_sidechain": [false], "intermolecular_energy": 2.731, "internal_energy": -0.839}

$$$$
EPH_relaxed_0001_pdb2pqr_Repair_272_r2_0001_out
     RDKit          3D

 82 86  0  0  0  0  0  0  0  0999 V2000
   -0.8660   16.3270   -5.8480 C   0  0  0  0  0  0  0  0  0  0  0  0
    0.2260   15.6270   -6.6610 C   0  0  2  0  0  0  0  0  0  0  0  0
   -0.1760   15.4420   -8.1380 C   0  0  0  0  0  0  0  0  0  0  0  0
    0.4540   16.4710   -9.0800 C   0  0  0  0  0  0  0  0  0  0  0  0
    1.8580   16.0970   -9.4510 C   0  0  2  0  0  0  0  0  0  0  0  0
    2.3230   16.6630  -10.6830 O   0  0  0  0  0  0  0  0  0  0  0  0
    2.2050   15.2310  -10.6470 C   0  0  0  0  0  0  0  0  0  0  0  0
    1.1430   14.6850  -11.5490 C   0  0  0  0  0  0  0  0  0  0  0  0
    3.5210   14.5180  -10.6560 C   0  0  0  0  0  0  0  0  0  0  0  0
    0.5520   14.2750   -6.0370 C   0  0  1  0  0  0  0  0  0  0  0  0
    1.8250   13.6270   -6.6440 C   0  0  0  0  0  0  0  0  0  0  0  0
    2.5320   12.8650   -5.4940 C   0  0  0  0  0  0  0  0  0  0  0  0
    1.4860   12.8190   -4.3560 C   0  0  1  0  0  0  0  0  0  0  0  0
    0.5400   11.6350   -4.7280 C   0  0  0  0  0  0  0  0  0  0  0  0
    2.0490   12.6740   -2.9050 C   0  0  2  0  0  0  0  0  0  0  0  0
    2.8270   11.3740   -2.6340 C   0  0  0  0  0  0  0  0  0  0  0  0
    2.0060   10.2340   -2.1290 C   0  0  0  0  0  0  0  0  0  0  0  0
    0.7590   10.3270   -1.6320 C   0  0  0  0  0  0  0  0  0  0  0  0
    0.0840   11.6930   -1.4500 C   0  0  1  0  0  0  0  0  0  0  0  0
   -0.5710   11.7640   -0.0460 C   0  0  0  0  0  0  0  0  0  0  0  0
   -1.5260   10.6020    0.2140 C   0  0  0  0  0  0  0  0  0  0  0  0
   -0.8040    9.2640    0.0810 C   0  0  2  0  0  0  0  0  0  0  0  0
    0.1560    9.1510    1.1360 O   0  0  0  0  0  0  0  0  0  0  0  0
   -0.0970    9.0820   -1.2910 C   0  0  0  0  0  0  0  0  0  0  0  0
   -1.1580    8.9030   -2.4040 C   0  0  0  0  0  0  0  0  0  0  0  0
    0.7090    7.7560   -1.2410 C   0  0  0  0  0  0  0  0  0  0  0  0
    0.9890   12.9610   -1.7660 C   0  0  1  0  0  0  0  0  0  0  0  0
    1.7980   13.3670   -0.4960 C   0  0  0  0  0  0  0  0  0  0  0  0
    0.0580   14.1840   -2.1090 C   0  0  0  0  0  0  0  0  0  0  0  0
   -0.3670   14.3410   -3.5820 C   0  0  0  0  0  0  0  0  0  0  0  0
    0.8430   14.2450   -4.5150 C   0  0  2  0  0  0  0  0  0  0  0  0
    1.8020   15.4380   -4.1790 C   0  0  0  0  0  0  0  0  0  0  0  0
   -0.6639   16.1974   -4.7745 H   0  0  0  0  0  0  0  0  0  0  0  0
   -0.8747   17.3994   -6.0926 H   0  0  0  0  0  0  0  0  0  0  0  0
   -1.8441   15.8872   -6.0926 H   0  0  0  0  0  0  0  0  0  0  0  0
    1.1172   16.2714   -6.6405 H   0  0  0  0  0  0  0  0  0  0  0  0
    0.1377   14.4381   -8.4603 H   0  0  0  0  0  0  0  0  0  0  0  0
   -1.2660   15.5791   -8.1944 H   0  0  0  0  0  0  0  0  0  0  0  0
   -0.1520   16.5339   -9.9959 H   0  0  0  0  0  0  0  0  0  0  0  0
    0.4834   17.4396   -8.5594 H   0  0  0  0  0  0  0  0  0  0  0  0
    2.1478   16.0415   -8.3913 H   0  0  0  0  0  0  0  0  0  0  0  0
    0.3269   14.2654  -10.9425 H   0  0  0  0  0  0  0  0  0  0  0  0
    0.7501   15.4929  -12.1838 H   0  0  0  0  0  0  0  0  0  0  0  0
    1.5714   13.8954  -12.1838 H   0  0  0  0  0  0  0  0  0  0  0  0
    3.8489   14.3404   -9.6211 H   0  0  0  0  0  0  0  0  0  0  0  0
    3.4128   13.5551  -11.1767 H   0  0  0  0  0  0  0  0  0  0  0  0
    4.2685   15.1345  -11.1767 H   0  0  0  0  0  0  0  0  0  0  0  0
   -0.3866   13.7430   -6.2516 H   0  0  0  0  0  0  0  0  0  0  0  0
    1.5480   12.9282   -7.4471 H   0  0  0  0  0  0  0  0  0  0  0  0
    2.4879   14.3903   -7.0776 H   0  0  0  0  0  0  0  0  0  0  0  0
    2.8048   11.8480   -5.8121 H   0  0  0  0  0  0  0  0  0  0  0  0
    3.4667   13.3540   -5.1821 H   0  0  0  0  0  0  0  0  0  0  0  0
    0.1634   11.1637   -3.8082 H   0  0  0  0  0  0  0  0  0  0  0  0
   -0.3068   12.0140   -5.3190 H   0  0  0  0  0  0  0  0  0  0  0  0
    1.0966   10.8927   -5.3190 H   0  0  0  0  0  0  0  0  0  0  0  0
    2.7929   13.4830   -2.8592 H   0  0  0  0  0  0  0  0  0  0  0  0
    3.3027   11.0600   -3.5748 H   0  0  0  0  0  0  0  0  0  0  0  0
    3.5453   11.6097   -1.8349 H   0  0  0  0  0  0  0  0  0  0  0  0
    2.4592    9.2324   -2.1664 H   0  0  0  0  0  0  0  0  0  0  0  0
   -0.6919   11.7547   -2.2272 H   0  0  0  0  0  0  0  0  0  0  0  0
    0.2231   11.7447    0.7149 H   0  0  0  0  0  0  0  0  0  0  0  0
   -1.1561   12.6942    0.0027 H   0  0  0  0  0  0  0  0  0  0  0  0
   -1.9338   10.6917    1.2317 H   0  0  0  0  0  0  0  0  0  0  0  0
   -2.3362   10.6397   -0.5291 H   0  0  0  0  0  0  0  0  0  0  0  0
   -1.5639    8.4716    0.1489 H   0  0  0  0  0  0  0  0  0  0  0  0
   -0.0970    9.7800    1.8330 H   0  0  0  0  0  0  0  0  0  0  0  0
   -2.1445    8.7366   -1.9468 H   0  0  0  0  0  0  0  0  0  0  0  0
   -1.1911    9.8083   -3.0280 H   0  0  0  0  0  0  0  0  0  0  0  0
   -0.8923    8.0370   -3.0280 H   0  0  0  0  0  0  0  0  0  0  0  0
    0.8820    7.4714   -0.1926 H   0  0  0  0  0  0  0  0  0  0  0  0
    0.1405    6.9621   -1.7475 H   0  0  0  0  0  0  0  0  0  0  0  0
    1.6755    7.8951   -1.7475 H   0  0  0  0  0  0  0  0  0  0  0  0
    1.2334   13.0836    0.4045 H   0  0  0  0  0  0  0  0  0  0  0  0
    2.7685   12.8491   -0.4984 H   0  0  0  0  0  0  0  0  0  0  0  0
    1.9628   14.4546   -0.4984 H   0  0  0  0  0  0  0  0  0  0  0  0
   -0.8574   14.0847   -1.5071 H   0  0  0  0  0  0  0  0  0  0  0  0
    0.6610   15.0766   -1.8863 H   0  0  0  0  0  0  0  0  0  0  0  0
   -1.0820   13.5449   -3.8370 H   0  0  0  0  0  0  0  0  0  0  0  0
   -0.8305   15.3304   -3.7096 H   0  0  0  0  0  0  0  0  0  0  0  0
    1.8871   15.5438   -3.0874 H   0  0  0  0  0  0  0  0  0  0  0  0
    2.7961   15.2411   -4.6069 H   0  0  0  0  0  0  0  0  0  0  0  0
    1.3960   16.3665   -4.6069 H   0  0  0  0  0  0  0  0  0  0  0  0
  1  2  1  0
  2  3  1  0
  3  4  1  0
  4  5  1  0
  5  6  1  0
  6  7  1  0
  7  8  1  0
  7  9  1  0
  2 10  1  0
 10 11  1  0
 11 12  1  0
 12 13  1  0
 13 14  1  6
 13 15  1  0
 15 16  1  0
 16 17  1  0
 17 18  2  0
 18 19  1  0
 19 20  1  0
 20 21  1  0
 21 22  1  0
 22 23  1  0
 22 24  1  0
 24 25  1  0
 24 26  1  0
 19 27  1  0
 27 28  1  1
 27 29  1  0
 29 30  1  0
 30 31  1  0
 31 32  1  1
  7  5  1  0
 31 10  1  0
 31 13  1  0
 27 15  1  0
 24 18  1  0
  1 33  1  0
  1 34  1  0
  1 35  1  0
  2 36  1  6
  3 37  1  0
  3 38  1  0
  4 39  1  0
  4 40  1  0
  5 41  1  1
  8 42  1  0
  8 43  1  0
  8 44  1  0
  9 45  1  0
  9 46  1  0
  9 47  1  0
 10 48  1  1
 11 49  1  0
 11 50  1  0
 12 51  1  0
 12 52  1  0
 14 53  1  0
 14 54  1  0
 14 55  1  0
 15 56  1  6
 16 57  1  0
 16 58  1  0
 17 59  1  0
 19 60  1  6
 20 61  1  0
 20 62  1  0
 21 63  1  0
 21 64  1  0
 22 65  1  1
 23 66  1  0
 25 67  1  0
 25 68  1  0
 25 69  1  0
 26 70  1  0
 26 71  1  0
 26 72  1  0
 28 73  1  0
 28 74  1  0
 28 75  1  0
 29 76  1  0
 29 77  1  0
 30 78  1  0
 30 79  1  0
 32 80  1  0
 32 81  1  0
 32 82  1  0
M  END
>  <meeko>  (14) 
{"is_sidechain": [false], "intermolecular_energy": 2.731, "internal_energy": -0.839}

$$$$
EPH_relaxed_0001_pdb2pqr_Repair_272_r2_0001_out
     RDKit          3D

 82 86  0  0  0  0  0  0  0  0999 V2000
   -0.2090    9.3620   -2.2960 C   0  0  0  0  0  0  0  0  0  0  0  0
    0.9240   10.2960   -2.7300 C   0  0  2  0  0  0  0  0  0  0  0  0
    2.2870    9.5760   -2.7680 C   0  0  0  0  0  0  0  0  0  0  0  0
    3.2320   10.1060   -3.8510 C   0  0  0  0  0  0  0  0  0  0  0  0
    4.5890   10.4200   -3.2970 C   0  0  2  0  0  0  0  0  0  0  0  0
    5.0470   11.7540   -3.5550 O   0  0  0  0  0  0  0  0  0  0  0  0
    5.8030   10.6950   -4.1630 C   0  0  0  0  0  0  0  0  0  0  0  0
    5.7180   10.6660   -5.6570 C   0  0  0  0  0  0  0  0  0  0  0  0
    7.1640   10.5070   -3.5680 C   0  0  0  0  0  0  0  0  0  0  0  0
    0.9950   11.4970   -1.7940 C   0  0  1  0  0  0  0  0  0  0  0  0
    2.0850   11.3380   -0.7010 C   0  0  0  0  0  0  0  0  0  0  0  0
    2.6700   12.7510   -0.4440 C   0  0  0  0  0  0  0  0  0  0  0  0
    1.6830   13.7150   -1.1440 C   0  0  1  0  0  0  0  0  0  0  0  0
    0.5030   13.8820   -0.1360 C   0  0  0  0  0  0  0  0  0  0  0  0
    2.2640   15.0970   -1.5880 C   0  0  2  0  0  0  0  0  0  0  0  0
    2.7740   15.9880   -0.4420 C   0  0  0  0  0  0  0  0  0  0  0  0
    1.7610   16.9180    0.1410 C   0  0  0  0  0  0  0  0  0  0  0  0
    0.5800   17.2380   -0.4180 C   0  0  0  0  0  0  0  0  0  0  0  0
    0.2020   16.7210   -1.8120 C   0  0  1  0  0  0  0  0  0  0  0  0
   -0.3670   17.8880   -2.6610 C   0  0  0  0  0  0  0  0  0  0  0  0
   -1.5250   18.6030   -1.9700 C   0  0  0  0  0  0  0  0  0  0  0  0
   -1.0950   19.1530   -0.6130 C   0  0  2  0  0  0  0  0  0  0  0  0
   -0.1350   20.1940   -0.8210 O   0  0  0  0  0  0  0  0  0  0  0  0
   -0.4950   18.0690    0.3260 C   0  0  0  0  0  0  0  0  0  0  0  0
   -1.6150   17.1070    0.7930 C   0  0  0  0  0  0  0  0  0  0  0  0
    0.0280   18.7800    1.6030 C   0  0  0  0  0  0  0  0  0  0  0  0
    1.3310   15.9050   -2.5780 C   0  0  1  0  0  0  0  0  0  0  0  0
    2.2560   16.8840   -3.3630 C   0  0  0  0  0  0  0  0  0  0  0  0
    0.6530   14.9760   -3.6530 C   0  0  0  0  0  0  0  0  0  0  0  0
    0.2090   13.5780   -3.1830 C   0  0  0  0  0  0  0  0  0  0  0  0
    1.3360   12.8700   -2.4240 C   0  0  2  0  0  0  0  0  0  0  0  0
    2.5290   12.6680   -3.4190 C   0  0  0  0  0  0  0  0  0  0  0  0
   -0.2535    9.3253   -1.1975 H   0  0  0  0  0  0  0  0  0  0  0  0
   -1.1650    9.7379   -2.6893 H   0  0  0  0  0  0  0  0  0  0  0  0
   -0.0224    8.3518   -2.6893 H   0  0  0  0  0  0  0  0  0  0  0  0
    0.7008   10.6346   -3.7525 H   0  0  0  0  0  0  0  0  0  0  0  0
    2.7740    9.7021   -1.7898 H   0  0  0  0  0  0  0  0  0  0  0  0
    2.0871    8.5203   -3.0036 H   0  0  0  0  0  0  0  0  0  0  0  0
    3.3356    9.3442   -4.6377 H   0  0  0  0  0  0  0  0  0  0  0  0
    2.8034   11.0347   -4.2558 H   0  0  0  0  0  0  0  0  0  0  0  0
    4.4266    9.7377   -2.4496 H   0  0  0  0  0  0  0  0  0  0  0  0
    4.7174   10.3246   -5.9608 H   0  0  0  0  0  0  0  0  0  0  0  0
    5.8971   11.6761   -6.0541 H   0  0  0  0  0  0  0  0  0  0  0  0
    6.4771    9.9760   -6.0541 H   0  0  0  0  0  0  0  0  0  0  0  0
    7.0890   10.5174   -2.4706 H   0  0  0  0  0  0  0  0  0  0  0  0
    7.5785    9.5431   -3.8981 H   0  0  0  0  0  0  0  0  0  0  0  0
    7.8243   11.3225   -3.8981 H   0  0  0  0  0  0  0  0  0  0  0  0
   -0.0395   11.5015   -1.4202 H   0  0  0  0  0  0  0  0  0  0  0  0
    1.6402   10.9384    0.2223 H   0  0  0  0  0  0  0  0  0  0  0  0
    2.8698   10.6384   -1.0245 H   0  0  0  0  0  0  0  0  0  0  0  0
    2.7187   12.9609    0.6347 H   0  0  0  0  0  0  0  0  0  0  0  0
    3.6960   12.8538   -0.8270 H   0  0  0  0  0  0  0  0  0  0  0  0
    0.8889   13.8274    0.8926 H   0  0  0  0  0  0  0  0  0  0  0  0
    0.0201   14.8574   -0.2951 H   0  0  0  0  0  0  0  0  0  0  0  0
   -0.2316   13.0789   -0.2951 H   0  0  0  0  0  0  0  0  0  0  0  0
    3.1572   14.8050   -2.1597 H   0  0  0  0  0  0  0  0  0  0  0  0
    3.1367   15.3321    0.3632 H   0  0  0  0  0  0  0  0  0  0  0  0
    3.5579   16.6252   -0.8772 H   0  0  0  0  0  0  0  0  0  0  0  0
    2.0011   17.3805    1.1097 H   0  0  0  0  0  0  0  0  0  0  0  0
   -0.5767   15.9605   -1.6530 H   0  0  0  0  0  0  0  0  0  0  0  0
    0.4374   18.6154   -2.8448 H   0  0  0  0  0  0  0  0  0  0  0  0
   -0.7498   17.4623   -3.6003 H   0  0  0  0  0  0  0  0  0  0  0  0
   -1.8643   19.4351   -2.6045 H   0  0  0  0  0  0  0  0  0  0  0  0
   -2.3401   17.8811   -1.8138 H   0  0  0  0  0  0  0  0  0  0  0  0
   -1.9960   19.5371   -0.1124 H   0  0  0  0  0  0  0  0  0  0  0  0
    0.2110   20.4530    0.0500 H   0  0  0  0  0  0  0  0  0  0  0  0
   -1.6429   17.0830    1.8924 H   0  0  0  0  0  0  0  0  0  0  0  0
   -2.5840   17.4586    0.4092 H   0  0  0  0  0  0  0  0  0  0  0  0
   -1.4136   16.0960    0.4092 H   0  0  0  0  0  0  0  0  0  0  0  0
   -0.3540   18.2607    2.4943 H   0  0  0  0  0  0  0  0  0  0  0  0
    1.1278   18.7594    1.6098 H   0  0  0  0  0  0  0  0  0  0  0  0
   -0.3192   19.8237    1.6098 H   0  0  0  0  0  0  0  0  0  0  0  0
    2.8322   17.4939   -2.6516 H   0  0  0  0  0  0  0  0  0  0  0  0
    2.9471   16.3076   -3.9956 H   0  0  0  0  0  0  0  0  0  0  0  0
    1.6414   17.5413   -3.9956 H   0  0  0  0  0  0  0  0  0  0  0  0
   -0.2384   15.4989   -4.0298 H   0  0  0  0  0  0  0  0  0  0  0  0
    1.4328   14.7917   -4.4066 H   0  0  0  0  0  0  0  0  0  0  0  0
   -0.6620   13.6815   -2.5192 H   0  0  0  0  0  0  0  0  0  0  0  0
   -0.0495   12.9768   -4.0672 H   0  0  0  0  0  0  0  0  0  0  0  0
    3.4577   12.5108   -2.8509 H   0  0  0  0  0  0  0  0  0  0  0  0
    2.3336   11.7902   -4.0524 H   0  0  0  0  0  0  0  0  0  0  0  0
    2.6334   13.5612   -4.0524 H   0  0  0  0  0  0  0  0  0  0  0  0
  1  2  1  0
  2  3  1  0
  3  4  1  0
  4  5  1  0
  5  6  1  0
  6  7  1  0
  7  8  1  0
  7  9  1  0
  2 10  1  0
 10 11  1  0
 11 12  1  0
 12 13  1  0
 13 14  1  1
 13 15  1  0
 15 16  1  0
 16 17  1  0
 17 18  2  0
 18 19  1  0
 19 20  1  0
 20 21  1  0
 21 22  1  0
 22 23  1  0
 22 24  1  0
 24 25  1  0
 24 26  1  0
 19 27  1  0
 27 28  1  6
 27 29  1  0
 29 30  1  0
 30 31  1  0
 31 32  1  6
  7  5  1  0
 31 10  1  0
 31 13  1  0
 27 15  1  0
 24 18  1  0
  1 33  1  0
  1 34  1  0
  1 35  1  0
  2 36  1  6
  3 37  1  0
  3 38  1  0
  4 39  1  0
  4 40  1  0
  5 41  1  1
  8 42  1  0
  8 43  1  0
  8 44  1  0
  9 45  1  0
  9 46  1  0
  9 47  1  0
 10 48  1  1
 11 49  1  0
 11 50  1  0
 12 51  1  0
 12 52  1  0
 14 53  1  0
 14 54  1  0
 14 55  1  0
 15 56  1  6
 16 57  1  0
 16 58  1  0
 17 59  1  0
 19 60  1  1
 20 61  1  0
 20 62  1  0
 21 63  1  0
 21 64  1  0
 22 65  1  1
 23 66  1  0
 25 67  1  0
 25 68  1  0
 25 69  1  0
 26 70  1  0
 26 71  1  0
 26 72  1  0
 28 73  1  0
 28 74  1  0
 28 75  1  0
 29 76  1  0
 29 77  1  0
 30 78  1  0
 30 79  1  0
 32 80  1  0
 32 81  1  0
 32 82  1  0
M  END
>  <meeko>  (15) 
{"is_sidechain": [false], "intermolecular_energy": 2.731, "internal_energy": -0.839}

$$$$
EPH_relaxed_0001_pdb2pqr_Repair_272_r2_0001_out
     RDKit          3D

 82 86  0  0  0  0  0  0  0  0999 V2000
   -2.2460    7.8510   -2.1240 C   0  0  0  0  0  0  0  0  0  0  0  0
   -2.2020    8.4680   -0.7240 C   0  0  2  0  0  0  0  0  0  0  0  0
   -3.5860    8.4690   -0.0450 C   0  0  0  0  0  0  0  0  0  0  0  0
   -4.7520    8.6130   -1.0270 C   0  0  0  0  0  0  0  0  0  0  0  0
   -5.4360    7.3010   -1.2720 C   0  0  2  0  0  0  0  0  0  0  0  0
   -5.6270    6.9750   -2.6540 O   0  0  0  0  0  0  0  0  0  0  0  0
   -6.8200    7.1800   -1.8800 C   0  0  0  0  0  0  0  0  0  0  0  0
   -7.6050    8.3900   -2.2810 C   0  0  0  0  0  0  0  0  0  0  0  0
   -7.6030    5.9280   -1.6350 C   0  0  0  0  0  0  0  0  0  0  0  0
   -1.6580    9.8900   -0.7990 C   0  0  1  0  0  0  0  0  0  0  0  0
   -1.1790   10.4200    0.5790 C   0  0  0  0  0  0  0  0  0  0  0  0
    0.0480   11.3270    0.3070 C   0  0  0  0  0  0  0  0  0  0  0  0
    0.0340   11.5560   -1.2230 C   0  0  1  0  0  0  0  0  0  0  0  0
   -1.0140   12.6910   -1.4490 C   0  0  0  0  0  0  0  0  0  0  0  0
    1.4080   11.8990   -1.8830 C   0  0  2  0  0  0  0  0  0  0  0  0
    2.0540   13.2100   -1.4030 C   0  0  0  0  0  0  0  0  0  0  0  0
    1.6910   14.4260   -2.1890 C   0  0  0  0  0  0  0  0  0  0  0  0
    1.1100   14.4270   -3.4040 C   0  0  0  0  0  0  0  0  0  0  0  0
    0.8490   13.1140   -4.1530 C   0  0  1  0  0  0  0  0  0  0  0  0
    1.3110   13.2580   -5.6270 C   0  0  0  0  0  0  0  0  0  0  0  0
    0.6820   14.4620   -6.3220 C   0  0  0  0  0  0  0  0  0  0  0  0
    1.0130   15.7540   -5.5800 C   0  0  2  0  0  0  0  0  0  0  0  0
    2.4180   16.0010   -5.6890 O   0  0  0  0  0  0  0  0  0  0  0  0
    0.6020   15.7230   -4.0820 C   0  0  0  0  0  0  0  0  0  0  0  0
   -0.9420   15.7590   -3.9650 C   0  0  0  0  0  0  0  0  0  0  0  0
    1.1180   17.0280   -3.4180 C   0  0  0  0  0  0  0  0  0  0  0  0
    1.4120   11.7980   -3.4630 C   0  0  1  0  0  0  0  0  0  0  0  0
    2.8930   11.5650   -3.8900 C   0  0  0  0  0  0  0  0  0  0  0  0
    0.5980   10.5550   -3.9840 C   0  0  0  0  0  0  0  0  0  0  0  0
   -0.6880   10.1950   -3.2160 C   0  0  0  0  0  0  0  0  0  0  0  0
   -0.4270   10.1330   -1.7080 C   0  0  2  0  0  0  0  0  0  0  0  0
    0.6060    8.9850   -1.4480 C   0  0  0  0  0  0  0  0  0  0  0  0
   -2.3240    6.7570   -2.0403 H   0  0  0  0  0  0  0  0  0  0  0  0
   -3.1187    8.2402   -2.6690 H   0  0  0  0  0  0  0  0  0  0  0  0
   -1.3269    8.1124   -2.6690 H   0  0  0  0  0  0  0  0  0  0  0  0
   -1.5340    7.8460   -0.1101 H   0  0  0  0  0  0  0  0  0  0  0  0
   -3.7061    7.5214    0.5005 H   0  0  0  0  0  0  0  0  0  0  0  0
   -3.6168    9.3433    0.6219 H   0  0  0  0  0  0  0  0  0  0  0  0
   -5.4820    9.3236   -0.6120 H   0  0  0  0  0  0  0  0  0  0  0  0
   -4.3507    8.9747   -1.9852 H   0  0  0  0  0  0  0  0  0  0  0  0
   -4.9899    6.8718   -0.3628 H   0  0  0  0  0  0  0  0  0  0  0  0
   -7.9485    8.9194   -1.3800 H   0  0  0  0  0  0  0  0  0  0  0  0
   -6.9682    9.0587   -2.8788 H   0  0  0  0  0  0  0  0  0  0  0  0
   -8.4751    8.0810   -2.8788 H   0  0  0  0  0  0  0  0  0  0  0  0
   -7.7048    5.7652   -0.5519 H   0  0  0  0  0  0  0  0  0  0  0  0
   -8.6013    6.0256   -2.0865 H   0  0  0  0  0  0  0  0  0  0  0  0
   -7.0783    5.0731   -2.0865 H   0  0  0  0  0  0  0  0  0  0  0  0
   -2.5388   10.4030   -1.2125 H   0  0  0  0  0  0  0  0  0  0  0  0
   -1.9797   11.0003    1.0609 H   0  0  0  0  0  0  0  0  0  0  0  0
   -0.9157    9.5903    1.2516 H   0  0  0  0  0  0  0  0  0  0  0  0
   -0.0491   12.2825    0.8434 H   0  0  0  0  0  0  0  0  0  0  0  0
    0.9878   10.8709    0.6515 H   0  0  0  0  0  0  0  0  0  0  0  0
   -1.3620   13.0678   -0.4759 H   0  0  0  0  0  0  0  0  0  0  0  0
   -0.5493   13.5117   -2.0152 H   0  0  0  0  0  0  0  0  0  0  0  0
   -1.8691   12.2931   -2.0152 H   0  0  0  0  0  0  0  0  0  0  0  0
    2.0559   11.0924   -1.5094 H   0  0  0  0  0  0  0  0  0  0  0  0
    1.7492   13.3766   -0.3593 H   0  0  0  0  0  0  0  0  0  0  0  0
    3.1387   13.0786   -1.5302 H   0  0  0  0  0  0  0  0  0  0  0  0
    1.9171   15.4035   -1.7379 H   0  0  0  0  0  0  0  0  0  0  0  0
   -0.2388   12.9545   -4.1165 H   0  0  0  0  0  0  0  0  0  0  0  0
    2.4049   13.3726   -5.6441 H   0  0  0  0  0  0  0  0  0  0  0  0
    0.9902   12.3552   -6.1673 H   0  0  0  0  0  0  0  0  0  0  0  0
    1.0693   14.5275   -7.3495 H   0  0  0  0  0  0  0  0  0  0  0  0
   -0.4102   14.3317   -6.3304 H   0  0  0  0  0  0  0  0  0  0  0  0
    0.4304   16.5614   -6.0476 H   0  0  0  0  0  0  0  0  0  0  0  0
    2.7200   16.3630   -4.8380 H   0  0  0  0  0  0  0  0  0  0  0  0
   -1.2292   15.7657   -2.9032 H   0  0  0  0  0  0  0  0  0  0  0  0
   -1.3257   16.6663   -4.4544 H   0  0  0  0  0  0  0  0  0  0  0  0
   -1.3676   14.8705   -4.4544 H   0  0  0  0  0  0  0  0  0  0  0  0
    1.0768   16.9237   -2.3237 H   0  0  0  0  0  0  0  0  0  0  0  0
    2.1566   17.2122   -3.7299 H   0  0  0  0  0  0  0  0  0  0  0  0
    0.4862   17.8727   -3.7299 H   0  0  0  0  0  0  0  0  0  0  0  0
    3.5220   11.4660   -2.9930 H   0  0  0  0  0  0  0  0  0  0  0  0
    2.9615   10.6450   -4.4892 H   0  0  0  0  0  0  0  0  0  0  0  0
    3.2406   12.4195   -4.4892 H   0  0  0  0  0  0  0  0  0  0  0  0
    0.3167   10.7555   -5.0284 H   0  0  0  0  0  0  0  0  0  0  0  0
    1.2674    9.6935   -3.8439 H   0  0  0  0  0  0  0  0  0  0  0  0
   -1.4533   10.9590   -3.4176 H   0  0  0  0  0  0  0  0  0  0  0  0
   -1.0327    9.2063   -3.5532 H   0  0  0  0  0  0  0  0  0  0  0  0
    0.7327    8.8442   -0.3644 H   0  0  0  0  0  0  0  0  0  0  0  0
    0.2378    8.0515   -1.8985 H   0  0  0  0  0  0  0  0  0  0  0  0
    1.5731    9.2530   -1.8985 H   0  0  0  0  0  0  0  0  0  0  0  0
  1  2  1  0
  2  3  1  0
  3  4  1  0
  4  5  1  0
  5  6  1  0
  6  7  1  0
  7  8  1  0
  7  9  1  0
  2 10  1  0
 10 11  1  0
 11 12  1  0
 12 13  1  0
 13 14  1  1
 13 15  1  0
 15 16  1  0
 16 17  1  0
 17 18  2  0
 18 19  1  0
 19 20  1  0
 20 21  1  0
 21 22  1  0
 22 23  1  0
 22 24  1  0
 24 25  1  0
 24 26  1  0
 19 27  1  0
 27 28  1  6
 27 29  1  0
 29 30  1  0
 30 31  1  0
 31 32  1  6
  7  5  1  0
 31 10  1  0
 31 13  1  0
 27 15  1  0
 24 18  1  0
  1 33  1  0
  1 34  1  0
  1 35  1  0
  2 36  1  1
  3 37  1  0
  3 38  1  0
  4 39  1  0
  4 40  1  0
  5 41  1  1
  8 42  1  0
  8 43  1  0
  8 44  1  0
  9 45  1  0
  9 46  1  0
  9 47  1  0
 10 48  1  6
 11 49  1  0
 11 50  1  0
 12 51  1  0
 12 52  1  0
 14 53  1  0
 14 54  1  0
 14 55  1  0
 15 56  1  1
 16 57  1  0
 16 58  1  0
 17 59  1  0
 19 60  1  6
 20 61  1  0
 20 62  1  0
 21 63  1  0
 21 64  1  0
 22 65  1  6
 23 66  1  0
 25 67  1  0
 25 68  1  0
 25 69  1  0
 26 70  1  0
 26 71  1  0
 26 72  1  0
 28 73  1  0
 28 74  1  0
 28 75  1  0
 29 76  1  0
 29 77  1  0
 30 78  1  0
 30 79  1  0
 32 80  1  0
 32 81  1  0
 32 82  1  0
M  END
>  <meeko>  (16) 
{"is_sidechain": [false], "intermolecular_energy": 2.731, "internal_energy": -0.839}

$$$$
EPH_relaxed_0001_pdb2pqr_Repair_272_r2_0001_out
     RDKit          3D

 82 86  0  0  0  0  0  0  0  0999 V2000
    1.6740   10.7170   -4.7870 C   0  0  0  0  0  0  0  0  0  0  0  0
    0.8890   10.5600   -3.4820 C   0  0  2  0  0  0  0  0  0  0  0  0
   -0.2860    9.5720   -3.6260 C   0  0  0  0  0  0  0  0  0  0  0  0
   -0.2880    8.4610   -2.5720 C   0  0  0  0  0  0  0  0  0  0  0  0
   -0.0280    9.0000   -1.1980 C   0  0  2  0  0  0  0  0  0  0  0  0
   -0.3640    8.1040   -0.1300 O   0  0  0  0  0  0  0  0  0  0  0  0
   -1.1280    9.3190   -0.2030 C   0  0  0  0  0  0  0  0  0  0  0  0
   -2.5710    9.1110   -0.5410 C   0  0  0  0  0  0  0  0  0  0  0  0
   -0.8340   10.2830    0.9040 C   0  0  0  0  0  0  0  0  0  0  0  0
    0.3740   11.9180   -3.0190 C   0  0  1  0  0  0  0  0  0  0  0  0
   -1.0490   11.8390   -2.4050 C   0  0  0  0  0  0  0  0  0  0  0  0
   -1.1030   12.8860   -1.2630 C   0  0  0  0  0  0  0  0  0  0  0  0
    0.1600   13.7550   -1.4710 C   0  0  1  0  0  0  0  0  0  0  0  0
   -0.2310   14.7700   -2.5900 C   0  0  0  0  0  0  0  0  0  0  0  0
    0.7160   14.4800   -0.2030 C   0  0  2  0  0  0  0  0  0  0  0  0
   -0.2370   15.5070    0.4330 C   0  0  0  0  0  0  0  0  0  0  0  0
   -0.1050   16.9030   -0.0790 C   0  0  0  0  0  0  0  0  0  0  0  0
    0.9280   17.3770   -0.8000 C   0  0  0  0  0  0  0  0  0  0  0  0
    2.1560   16.5020   -1.0870 C   0  0  1  0  0  0  0  0  0  0  0  0
    3.4470   17.3160   -0.8110 C   0  0  0  0  0  0  0  0  0  0  0  0
    3.4810   18.6370   -1.5750 C   0  0  0  0  0  0  0  0  0  0  0  0
    2.2750   19.5030   -1.2200 C   0  0  2  0  0  0  0  0  0  0  0  0
    2.3840   19.9050    0.1490 O   0  0  0  0  0  0  0  0  0  0  0  0
    0.9160   18.7840   -1.4470 C   0  0  0  0  0  0  0  0  0  0  0  0
    0.6620   18.6180   -2.9660 C   0  0  0  0  0  0  0  0  0  0  0  0
   -0.2100   19.7130   -0.9180 C   0  0  0  0  0  0  0  0  0  0  0  0
    2.1710   15.0770   -0.3830 C   0  0  1  0  0  0  0  0  0  0  0  0
    2.7840   15.1960    1.0460 C   0  0  0  0  0  0  0  0  0  0  0  0
    3.1170   14.1140   -1.1940 C   0  0  0  0  0  0  0  0  0  0  0  0
    2.4800   13.3350   -2.3600 C   0  0  0  0  0  0  0  0  0  0  0  0
    1.1840   12.6490   -1.9190 C   0  0  2  0  0  0  0  0  0  0  0  0
    1.5490   11.6060   -0.8080 C   0  0  0  0  0  0  0  0  0  0  0  0
    2.7288   10.9280   -4.5572 H   0  0  0  0  0  0  0  0  0  0  0  0
    1.6047    9.7872   -5.3707 H   0  0  0  0  0  0  0  0  0  0  0  0
    1.2524   11.5486   -5.3707 H   0  0  0  0  0  0  0  0  0  0  0  0
    1.5770   10.1468   -2.7297 H   0  0  0  0  0  0  0  0  0  0  0  0
   -1.2266   10.1356   -3.5384 H   0  0  0  0  0  0  0  0  0  0  0  0
   -0.1786    9.0851   -4.6065 H   0  0  0  0  0  0  0  0  0  0  0  0
   -1.2691    7.9637   -2.5801 H   0  0  0  0  0  0  0  0  0  0  0  0
    0.5155    7.7518   -2.8198 H   0  0  0  0  0  0  0  0  0  0  0  0
    0.8285    9.5854   -1.5638 H   0  0  0  0  0  0  0  0  0  0  0  0
   -3.1564    9.0266    0.3865 H   0  0  0  0  0  0  0  0  0  0  0  0
   -2.9368    9.9657   -1.1290 H   0  0  0  0  0  0  0  0  0  0  0  0
   -2.6805    8.1878   -1.1290 H   0  0  0  0  0  0  0  0  0  0  0  0
   -0.9857    9.7856    1.8733 H   0  0  0  0  0  0  0  0  0  0  0  0
    0.2089   10.6239    0.8260 H   0  0  0  0  0  0  0  0  0  0  0  0
   -1.5092   11.1479    0.8260 H   0  0  0  0  0  0  0  0  0  0  0  0
    0.4406   12.4731   -3.9663 H   0  0  0  0  0  0  0  0  0  0  0  0
   -1.8047   12.0730   -3.1693 H   0  0  0  0  0  0  0  0  0  0  0  0
   -1.2590   10.8286   -2.0243 H   0  0  0  0  0  0  0  0  0  0  0  0
   -2.0132   13.4988   -1.3406 H   0  0  0  0  0  0  0  0  0  0  0  0
   -1.1281   12.4175   -0.2681 H   0  0  0  0  0  0  0  0  0  0  0  0
   -0.5902   15.7024   -2.1301 H   0  0  0  0  0  0  0  0  0  0  0  0
    0.6489   14.9844   -3.2144 H   0  0  0  0  0  0  0  0  0  0  0  0
   -1.0273   14.3387   -3.2144 H   0  0  0  0  0  0  0  0  0  0  0  0
    0.7954   13.6568    0.5223 H   0  0  0  0  0  0  0  0  0  0  0  0
   -1.2687   15.1733    0.2478 H   0  0  0  0  0  0  0  0  0  0  0  0
    0.0284   15.5481    1.4997 H   0  0  0  0  0  0  0  0  0  0  0  0
   -0.9209   17.6035    0.1525 H   0  0  0  0  0  0  0  0  0  0  0  0
    2.1008   16.2400   -2.1539 H   0  0  0  0  0  0  0  0  0  0  0  0
    3.5051   17.5302    0.2664 H   0  0  0  0  0  0  0  0  0  0  0  0
    4.3014   16.7120   -1.1505 H   0  0  0  0  0  0  0  0  0  0  0  0
    4.4024   19.1792   -1.3160 H   0  0  0  0  0  0  0  0  0  0  0  0
    3.4528   18.4202   -2.6531 H   0  0  0  0  0  0  0  0  0  0  0  0
    2.2846   20.3738   -1.8921 H   0  0  0  0  0  0  0  0  0  0  0  0
    2.3470   19.1010    0.6960 H   0  0  0  0  0  0  0  0  0  0  0  0
   -0.2494   18.0223   -3.1224 H   0  0  0  0  0  0  0  0  0  0  0  0
    0.5362   19.6087   -3.4271 H   0  0  0  0  0  0  0  0  0  0  0  0
    1.5189   18.1051   -3.4271 H   0  0  0  0  0  0  0  0  0  0  0  0
   -0.2034   19.7075    0.1820 H   0  0  0  0  0  0  0  0  0  0  0  0
   -0.0406   20.7376   -1.2806 H   0  0  0  0  0  0  0  0  0  0  0  0
   -1.1838   19.3520   -1.2806 H   0  0  0  0  0  0  0  0  0  0  0  0
    1.9952   15.0429    1.7973 H   0  0  0  0  0  0  0  0  0  0  0  0
    3.5657   14.4328    1.1744 H   0  0  0  0  0  0  0  0  0  0  0  0
    3.2234   16.1962    1.1744 H   0  0  0  0  0  0  0  0  0  0  0  0
    3.9353   14.7218   -1.6075 H   0  0  0  0  0  0  0  0  0  0  0  0
    3.4326   13.3457   -0.4728 H   0  0  0  0  0  0  0  0  0  0  0  0
    2.2562   14.0337   -3.1796 H   0  0  0  0  0  0  0  0  0  0  0  0
    3.1888   12.5630   -2.6942 H   0  0  0  0  0  0  0  0  0  0  0  0
    1.3915   12.0560    0.1833 H   0  0  0  0  0  0  0  0  0  0  0  0
    0.9081   10.7183   -0.9137 H   0  0  0  0  0  0  0  0  0  0  0  0
    2.6036   11.3116   -0.9137 H   0  0  0  0  0  0  0  0  0  0  0  0
  1  2  1  0
  2  3  1  0
  3  4  1  0
  4  5  1  0
  5  6  1  0
  6  7  1  0
  7  8  1  0
  7  9  1  0
  2 10  1  0
 10 11  1  0
 11 12  1  0
 12 13  1  0
 13 14  1  6
 13 15  1  0
 15 16  1  0
 16 17  1  0
 17 18  2  0
 18 19  1  0
 19 20  1  0
 20 21  1  0
 21 22  1  0
 22 23  1  0
 22 24  1  0
 24 25  1  0
 24 26  1  0
 19 27  1  0
 27 28  1  1
 27 29  1  0
 29 30  1  0
 30 31  1  0
 31 32  1  1
  7  5  1  0
 31 10  1  0
 31 13  1  0
 27 15  1  0
 24 18  1  0
  1 33  1  0
  1 34  1  0
  1 35  1  0
  2 36  1  1
  3 37  1  0
  3 38  1  0
  4 39  1  0
  4 40  1  0
  5 41  1  6
  8 42  1  0
  8 43  1  0
  8 44  1  0
  9 45  1  0
  9 46  1  0
  9 47  1  0
 10 48  1  6
 11 49  1  0
 11 50  1  0
 12 51  1  0
 12 52  1  0
 14 53  1  0
 14 54  1  0
 14 55  1  0
 15 56  1  1
 16 57  1  0
 16 58  1  0
 17 59  1  0
 19 60  1  6
 20 61  1  0
 20 62  1  0
 21 63  1  0
 21 64  1  0
 22 65  1  6
 23 66  1  0
 25 67  1  0
 25 68  1  0
 25 69  1  0
 26 70  1  0
 26 71  1  0
 26 72  1  0
 28 73  1  0
 28 74  1  0
 28 75  1  0
 29 76  1  0
 29 77  1  0
 30 78  1  0
 30 79  1  0
 32 80  1  0
 32 81  1  0
 32 82  1  0
M  END
>  <meeko>  (17) 
{"is_sidechain": [false], "intermolecular_energy": 2.731, "internal_energy": -0.839}

$$$$
EPH_relaxed_0001_pdb2pqr_Repair_272_r2_0001_out
     RDKit          3D

 82 86  0  0  0  0  0  0  0  0999 V2000
    0.9050   14.9070   -2.6130 C   0  0  0  0  0  0  0  0  0  0  0  0
    1.1770   14.2350   -3.9620 C   0  0  2  0  0  0  0  0  0  0  0  0
    0.4810   14.9670   -5.1270 C   0  0  0  0  0  0  0  0  0  0  0  0
    1.0390   14.6000   -6.5050 C   0  0  0  0  0  0  0  0  0  0  0  0
    0.8050   15.6910   -7.5050 C   0  0  2  0  0  0  0  0  0  0  0  0
    0.3550   15.2400   -8.7890 O   0  0  0  0  0  0  0  0  0  0  0  0
    1.6440   15.8730   -8.7570 C   0  0  0  0  0  0  0  0  0  0  0  0
    2.7820   14.9530   -9.0740 C   0  0  0  0  0  0  0  0  0  0  0  0
    1.6720   17.2190   -9.4110 C   0  0  0  0  0  0  0  0  0  0  0  0
    0.7270   12.7800   -3.9180 C   0  0  1  0  0  0  0  0  0  0  0  0
    1.8590   11.7910   -4.3060 C   0  0  0  0  0  0  0  0  0  0  0  0
    1.6590   10.5200   -3.4410 C   0  0  0  0  0  0  0  0  0  0  0  0
    0.2460   10.6800   -2.8340 C   0  0  1  0  0  0  0  0  0  0  0  0
   -0.7300   10.2190   -3.9610 C   0  0  0  0  0  0  0  0  0  0  0  0
   -0.0200    9.9200   -1.4940 C   0  0  2  0  0  0  0  0  0  0  0  0
    0.0850    8.3870   -1.5810 C   0  0  0  0  0  0  0  0  0  0  0  0
   -1.1880    7.6790   -1.9090 C   0  0  0  0  0  0  0  0  0  0  0  0
   -2.4210    8.2150   -1.8460 C   0  0  0  0  0  0  0  0  0  0  0  0
   -2.6340    9.6390   -1.3150 C   0  0  1  0  0  0  0  0  0  0  0  0
   -3.8140    9.6460   -0.3080 C   0  0  0  0  0  0  0  0  0  0  0  0
   -5.0870    9.0450   -0.8960 C   0  0  0  0  0  0  0  0  0  0  0  0
   -4.8510    7.6100   -1.3580 C   0  0  2  0  0  0  0  0  0  0  0  0
   -4.5930    6.7930   -0.2120 O   0  0  0  0  0  0  0  0  0  0  0  0
   -3.6780    7.4770   -2.3690 C   0  0  0  0  0  0  0  0  0  0  0  0
   -4.0840    8.1100   -3.7230 C   0  0  0  0  0  0  0  0  0  0  0  0
   -3.4540    5.9660   -2.6460 C   0  0  0  0  0  0  0  0  0  0  0  0
   -1.3410   10.3670   -0.7450 C   0  0  1  0  0  0  0  0  0  0  0  0
   -1.1450   10.0040    0.7580 C   0  0  0  0  0  0  0  0  0  0  0  0
   -1.5610   11.9250   -0.8010 C   0  0  0  0  0  0  0  0  0  0  0  0
   -1.1680   12.6360   -2.1100 C   0  0  0  0  0  0  0  0  0  0  0  0
    0.2400   12.2270   -2.5550 C   0  0  2  0  0  0  0  0  0  0  0  0
    1.2460   12.6980   -1.4500 C   0  0  0  0  0  0  0  0  0  0  0  0
    1.1826   14.2211   -1.7991 H   0  0  0  0  0  0  0  0  0  0  0  0
    1.5010   15.8283   -2.5355 H   0  0  0  0  0  0  0  0  0  0  0  0
   -0.1640   15.1543   -2.5355 H   0  0  0  0  0  0  0  0  0  0  0  0
    2.2610   14.2836   -4.1428 H   0  0  0  0  0  0  0  0  0  0  0  0
   -0.5892   14.7134   -5.1068 H   0  0  0  0  0  0  0  0  0  0  0  0
    0.6599   16.0429   -4.9836 H   0  0  0  0  0  0  0  0  0  0  0  0
    2.1211   14.4236   -6.4162 H   0  0  0  0  0  0  0  0  0  0  0  0
    0.5202   13.6957   -6.8558 H   0  0  0  0  0  0  0  0  0  0  0  0
    0.5064   16.3888   -6.7088 H   0  0  0  0  0  0  0  0  0  0  0  0
    3.2314   14.5897   -8.1380 H   0  0  0  0  0  0  0  0  0  0  0  0
    2.4107   14.0983   -9.6584 H   0  0  0  0  0  0  0  0  0  0  0  0
    3.5400   15.4952   -9.6584 H   0  0  0  0  0  0  0  0  0  0  0  0
    1.6883   18.0018   -8.6384 H   0  0  0  0  0  0  0  0  0  0  0  0
    2.5721   17.3035  -10.0376 H   0  0  0  0  0  0  0  0  0  0  0  0
    0.7762   17.3409  -10.0376 H   0  0  0  0  0  0  0  0  0  0  0  0
   -0.1120   12.8261   -4.6279 H   0  0  0  0  0  0  0  0  0  0  0  0
    1.7903   11.5369   -5.3740 H   0  0  0  0  0  0  0  0  0  0  0  0
    2.8495   12.2361   -4.1305 H   0  0  0  0  0  0  0  0  0  0  0  0
    1.7143    9.6143   -4.0629 H   0  0  0  0  0  0  0  0  0  0  0  0
    2.4353   10.4144   -2.6689 H   0  0  0  0  0  0  0  0  0  0  0  0
   -1.6366    9.7908   -3.5085 H   0  0  0  0  0  0  0  0  0  0  0  0
   -1.0043   11.0827   -4.5845 H   0  0  0  0  0  0  0  0  0  0  0  0
   -0.2371    9.4585   -4.5845 H   0  0  0  0  0  0  0  0  0  0  0  0
    0.8257   10.2428   -0.8690 H   0  0  0  0  0  0  0  0  0  0  0  0
    0.8217    8.1402   -2.3597 H   0  0  0  0  0  0  0  0  0  0  0  0
    0.3744    8.0439   -0.5767 H   0  0  0  0  0  0  0  0  0  0  0  0
   -1.1116    6.6295   -2.2296 H   0  0  0  0  0  0  0  0  0  0  0  0
   -2.8875   10.2548   -2.1905 H   0  0  0  0  0  0  0  0  0  0  0  0
   -3.5249    9.0622    0.5783 H   0  0  0  0  0  0  0  0  0  0  0  0
   -4.0272   10.6938   -0.0500 H   0  0  0  0  0  0  0  0  0  0  0  0
   -5.8753    9.0509   -0.1289 H   0  0  0  0  0  0  0  0  0  0  0  0
   -5.3904    9.6476   -1.7648 H   0  0  0  0  0  0  0  0  0  0  0  0
   -5.7584    7.2799   -1.8850 H   0  0  0  0  0  0  0  0  0  0  0  0
   -3.6380    6.6090   -0.1910 H   0  0  0  0  0  0  0  0  0  0  0  0
   -4.6696    9.0230   -3.5400 H   0  0  0  0  0  0  0  0  0  0  0  0
   -3.1794    8.3632   -4.2953 H   0  0  0  0  0  0  0  0  0  0  0  0
   -4.6914    7.3934   -4.2953 H   0  0  0  0  0  0  0  0  0  0  0  0
   -3.3740    5.4261   -1.6910 H   0  0  0  0  0  0  0  0  0  0  0  0
   -4.3031    5.5689   -3.2216 H   0  0  0  0  0  0  0  0  0  0  0  0
   -2.5262    5.8323   -3.2216 H   0  0  0  0  0  0  0  0  0  0  0  0
   -1.5741   10.7986    1.3861 H   0  0  0  0  0  0  0  0  0  0  0  0
   -1.6516    9.0519    0.9743 H   0  0  0  0  0  0  0  0  0  0  0  0
   -0.0710    9.9053    0.9743 H   0  0  0  0  0  0  0  0  0  0  0  0
   -2.6300   12.1165   -0.6264 H   0  0  0  0  0  0  0  0  0  0  0  0
   -0.8873   12.3382   -0.0359 H   0  0  0  0  0  0  0  0  0  0  0  0
   -1.8871   12.3645   -2.8969 H   0  0  0  0  0  0  0  0  0  0  0  0
   -1.1792   13.7221   -1.9362 H   0  0  0  0  0  0  0  0  0  0  0  0
    0.8190   12.4981   -0.4562 H   0  0  0  0  0  0  0  0  0  0  0  0
    2.1935   12.1499   -1.5590 H   0  0  0  0  0  0  0  0  0  0  0  0
    1.4318   13.7767   -1.5590 H   0  0  0  0  0  0  0  0  0  0  0  0
  1  2  1  0
  2  3  1  0
  3  4  1  0
  4  5  1  0
  5  6  1  0
  6  7  1  0
  7  8  1  0
  7  9  1  0
  2 10  1  0
 10 11  1  0
 11 12  1  0
 12 13  1  0
 13 14  1  6
 13 15  1  0
 15 16  1  0
 16 17  1  0
 17 18  2  0
 18 19  1  0
 19 20  1  0
 20 21  1  0
 21 22  1  0
 22 23  1  0
 22 24  1  0
 24 25  1  0
 24 26  1  0
 19 27  1  0
 27 28  1  1
 27 29  1  0
 29 30  1  0
 30 31  1  0
 31 32  1  1
  7  5  1  0
 31 10  1  0
 31 13  1  0
 27 15  1  0
 24 18  1  0
  1 33  1  0
  1 34  1  0
  1 35  1  0
  2 36  1  6
  3 37  1  0
  3 38  1  0
  4 39  1  0
  4 40  1  0
  5 41  1  1
  8 42  1  0
  8 43  1  0
  8 44  1  0
  9 45  1  0
  9 46  1  0
  9 47  1  0
 10 48  1  6
 11 49  1  0
 11 50  1  0
 12 51  1  0
 12 52  1  0
 14 53  1  0
 14 54  1  0
 14 55  1  0
 15 56  1  1
 16 57  1  0
 16 58  1  0
 17 59  1  0
 19 60  1  6
 20 61  1  0
 20 62  1  0
 21 63  1  0
 21 64  1  0
 22 65  1  6
 23 66  1  0
 25 67  1  0
 25 68  1  0
 25 69  1  0
 26 70  1  0
 26 71  1  0
 26 72  1  0
 28 73  1  0
 28 74  1  0
 28 75  1  0
 29 76  1  0
 29 77  1  0
 30 78  1  0
 30 79  1  0
 32 80  1  0
 32 81  1  0
 32 82  1  0
M  END
>  <meeko>  (18) 
{"is_sidechain": [false], "intermolecular_energy": 2.731, "internal_energy": -0.839}

$$$$
EPH_relaxed_0001_pdb2pqr_Repair_272_r2_0001_out
     RDKit          3D

 82 86  0  0  0  0  0  0  0  0999 V2000
   -2.4640    7.7200   -0.1130 C   0  0  0  0  0  0  0  0  0  0  0  0
   -3.0820    9.1210   -0.0930 C   0  0  2  0  0  0  0  0  0  0  0  0
   -4.5770    9.1030   -0.4710 C   0  0  0  0  0  0  0  0  0  0  0  0
   -5.1850    7.6980   -0.5060 C   0  0  0  0  0  0  0  0  0  0  0  0
   -5.8850    7.4300   -1.8040 C   0  0  2  0  0  0  0  0  0  0  0  0
   -6.8230    8.4400   -2.1990 O   0  0  0  0  0  0  0  0  0  0  0  0
   -7.3720    7.1440   -1.9090 C   0  0  0  0  0  0  0  0  0  0  0  0
   -8.2480    7.1120   -0.6960 C   0  0  0  0  0  0  0  0  0  0  0  0
   -7.8770    6.4200   -3.1180 C   0  0  0  0  0  0  0  0  0  0  0  0
   -2.3170   10.0410   -1.0370 C   0  0  1  0  0  0  0  0  0  0  0  0
   -2.9700   11.4420   -1.1670 C   0  0  0  0  0  0  0  0  0  0  0  0
   -1.8140   12.4620   -1.3320 C   0  0  0  0  0  0  0  0  0  0  0  0
   -0.5670   11.5940   -1.6240 C   0  0  1  0  0  0  0  0  0  0  0  0
   -0.6590   11.2600   -3.1460 C   0  0  0  0  0  0  0  0  0  0  0  0
    0.8150   12.2220   -1.2530 C   0  0  2  0  0  0  0  0  0  0  0  0
    1.1740   13.5080   -2.0180 C   0  0  0  0  0  0  0  0  0  0  0  0
    1.9250   13.3030   -3.2920 C   0  0  0  0  0  0  0  0  0  0  0  0
    2.5450   12.1660   -3.6610 C   0  0  0  0  0  0  0  0  0  0  0  0
    2.6100   10.9620   -2.7130 C   0  0  1  0  0  0  0  0  0  0  0  0
    4.0560   10.4020   -2.6850 C   0  0  0  0  0  0  0  0  0  0  0  0
    4.5840   10.0770   -4.0790 C   0  0  0  0  0  0  0  0  0  0  0  0
    4.5580   11.3130   -4.9750 C   0  0  2  0  0  0  0  0  0  0  0  0
    5.5010   12.2660   -4.4730 O   0  0  0  0  0  0  0  0  0  0  0  0
    3.1530   11.9700   -5.0710 C   0  0  0  0  0  0  0  0  0  0  0  0
    2.2050   11.0550   -5.8860 C   0  0  0  0  0  0  0  0  0  0  0  0
    3.2940   13.2830   -5.8870 C   0  0  0  0  0  0  0  0  0  0  0  0
    2.0170   11.1930   -1.2560 C   0  0  1  0  0  0  0  0  0  0  0  0
    3.1160   11.7880   -0.3230 C   0  0  0  0  0  0  0  0  0  0  0  0
    1.6150    9.8020   -0.6380 C   0  0  0  0  0  0  0  0  0  0  0  0
    0.1940    9.2900   -0.9430 C   0  0  0  0  0  0  0  0  0  0  0  0
   -0.8500   10.3770   -0.6690 C   0  0  2  0  0  0  0  0  0  0  0  0
   -0.7970   10.7170    0.8600 C   0  0  0  0  0  0  0  0  0  0  0  0
   -2.3106    7.3722    0.9192 H   0  0  0  0  0  0  0  0  0  0  0  0
   -3.1405    7.0283   -0.6363 H   0  0  0  0  0  0  0  0  0  0  0  0
   -1.4970    7.7532   -0.6363 H   0  0  0  0  0  0  0  0  0  0  0  0
   -3.0070    9.4999    0.9369 H   0  0  0  0  0  0  0  0  0  0  0  0
   -5.1294    9.7024    0.2676 H   0  0  0  0  0  0  0  0  0  0  0  0
   -4.6569    9.5138   -1.4883 H   0  0  0  0  0  0  0  0  0  0  0  0
   -4.3815    6.9583   -0.3748 H   0  0  0  0  0  0  0  0  0  0  0  0
   -5.9248    7.6238    0.3047 H   0  0  0  0  0  0  0  0  0  0  0  0
   -5.0026    6.9046   -2.1982 H   0  0  0  0  0  0  0  0  0  0  0  0
   -7.6226    7.1348    0.2086 H   0  0  0  0  0  0  0  0  0  0  0  0
   -8.9154    7.9864   -0.7025 H   0  0  0  0  0  0  0  0  0  0  0  0
   -8.8498    6.1913   -0.7025 H   0  0  0  0  0  0  0  0  0  0  0  0
   -8.4799    5.5557   -2.8026 H   0  0  0  0  0  0  0  0  0  0  0  0
   -8.4978    7.1000   -3.7199 H   0  0  0  0  0  0  0  0  0  0  0  0
   -7.0245    6.0723   -3.7199 H   0  0  0  0  0  0  0  0  0  0  0  0
   -2.3453    9.4302   -1.9514 H   0  0  0  0  0  0  0  0  0  0  0  0
   -3.6298   11.4720   -2.0466 H   0  0  0  0  0  0  0  0  0  0  0  0
   -3.5799   11.6766   -0.2821 H   0  0  0  0  0  0  0  0  0  0  0  0
   -2.0160   13.1459   -2.1696 H   0  0  0  0  0  0  0  0  0  0  0  0
   -1.6838   13.0930   -0.4405 H   0  0  0  0  0  0  0  0  0  0  0  0
   -0.9492   10.2066   -3.2733 H   0  0  0  0  0  0  0  0  0  0  0  0
   -1.4122   11.9075   -3.6186 H   0  0  0  0  0  0  0  0  0  0  0  0
    0.3196   11.4305   -3.6186 H   0  0  0  0  0  0  0  0  0  0  0  0
    0.6609   12.5292   -0.2081 H   0  0  0  0  0  0  0  0  0  0  0  0
    0.2380   14.0345   -2.2560 H   0  0  0  0  0  0  0  0  0  0  0  0
    1.8442   14.0781   -1.3578 H   0  0  0  0  0  0  0  0  0  0  0  0
    1.9762   14.1530   -3.9884 H   0  0  0  0  0  0  0  0  0  0  0  0
    1.9260   10.2090   -3.1315 H   0  0  0  0  0  0  0  0  0  0  0  0
    4.7157   11.1517   -2.2239 H   0  0  0  0  0  0  0  0  0  0  0  0
    4.0408    9.4663   -2.1069 H   0  0  0  0  0  0  0  0  0  0  0  0
    5.6192    9.7143   -3.9962 H   0  0  0  0  0  0  0  0  0  0  0  0
    3.9404    9.3055   -4.5268 H   0  0  0  0  0  0  0  0  0  0  0  0
    4.8233   10.9890   -5.9922 H   0  0  0  0  0  0  0  0  0  0  0  0
    5.4530   12.2430   -3.5020 H   0  0  0  0  0  0  0  0  0  0  0  0
    1.5881   10.4596   -5.1969 H   0  0  0  0  0  0  0  0  0  0  0  0
    1.5532   11.6741   -6.5199 H   0  0  0  0  0  0  0  0  0  0  0  0
    2.8006   10.3817   -6.5199 H   0  0  0  0  0  0  0  0  0  0  0  0
    3.3855   14.1352   -5.1975 H   0  0  0  0  0  0  0  0  0  0  0  0
    4.1912   13.2262   -6.5209 H   0  0  0  0  0  0  0  0  0  0  0  0
    2.4052   13.4180   -6.5209 H   0  0  0  0  0  0  0  0  0  0  0  0
    2.8288   11.6325    0.7274 H   0  0  0  0  0  0  0  0  0  0  0  0
    4.0748   11.2858   -0.5192 H   0  0  0  0  0  0  0  0  0  0  0  0
    3.2196   12.8654   -0.5192 H   0  0  0  0  0  0  0  0  0  0  0  0
    2.3266    9.0525   -1.0147 H   0  0  0  0  0  0  0  0  0  0  0  0
    1.6383    9.9538    0.4512 H   0  0  0  0  0  0  0  0  0  0  0  0
    0.1371    8.9947   -2.0011 H   0  0  0  0  0  0  0  0  0  0  0  0
   -0.0163    8.4289   -0.2916 H   0  0  0  0  0  0  0  0  0  0  0  0
   -0.9404    9.7968    1.4454 H   0  0  0  0  0  0  0  0  0  0  0  0
    0.1807   11.1581    1.1039 H   0  0  0  0  0  0  0  0  0  0  0  0
   -1.5941   11.4347    1.1039 H   0  0  0  0  0  0  0  0  0  0  0  0
  1  2  1  0
  2  3  1  0
  3  4  1  0
  4  5  1  0
  5  6  1  0
  6  7  1  0
  7  8  1  0
  7  9  1  0
  2 10  1  0
 10 11  1  0
 11 12  1  0
 12 13  1  0
 13 14  1  6
 13 15  1  0
 15 16  1  0
 16 17  1  0
 17 18  2  0
 18 19  1  0
 19 20  1  0
 20 21  1  0
 21 22  1  0
 22 23  1  0
 22 24  1  0
 24 25  1  0
 24 26  1  0
 19 27  1  0
 27 28  1  1
 27 29  1  0
 29 30  1  0
 30 31  1  0
 31 32  1  1
  7  5  1  0
 31 10  1  0
 31 13  1  0
 27 15  1  0
 24 18  1  0
  1 33  1  0
  1 34  1  0
  1 35  1  0
  2 36  1  1
  3 37  1  0
  3 38  1  0
  4 39  1  0
  4 40  1  0
  5 41  1  6
  8 42  1  0
  8 43  1  0
  8 44  1  0
  9 45  1  0
  9 46  1  0
  9 47  1  0
 10 48  1  6
 11 49  1  0
 11 50  1  0
 12 51  1  0
 12 52  1  0
 14 53  1  0
 14 54  1  0
 14 55  1  0
 15 56  1  1
 16 57  1  0
 16 58  1  0
 17 59  1  0
 19 60  1  6
 20 61  1  0
 20 62  1  0
 21 63  1  0
 21 64  1  0
 22 65  1  6
 23 66  1  0
 25 67  1  0
 25 68  1  0
 25 69  1  0
 26 70  1  0
 26 71  1  0
 26 72  1  0
 28 73  1  0
 28 74  1  0
 28 75  1  0
 29 76  1  0
 29 77  1  0
 30 78  1  0
 30 79  1  0
 32 80  1  0
 32 81  1  0
 32 82  1  0
M  END
>  <meeko>  (19) 
{"is_sidechain": [false], "intermolecular_energy": 2.731, "internal_energy": -0.839}

$$$$
EPH_relaxed_0001_pdb2pqr_Repair_272_r2_0001_out
     RDKit          3D

 82 86  0  0  0  0  0  0  0  0999 V2000
    0.6410    8.0530   -2.6280 C   0  0  0  0  0  0  0  0  0  0  0  0
   -0.7330    8.3600   -2.0270 C   0  0  2  0  0  0  0  0  0  0  0  0
   -1.8800    7.7580   -2.8620 C   0  0  0  0  0  0  0  0  0  0  0  0
   -3.1910    7.6040   -2.0870 C   0  0  0  0  0  0  0  0  0  0  0  0
   -4.1610    6.7170   -2.8080 C   0  0  2  0  0  0  0  0  0  0  0  0
   -5.0430    7.4020   -3.7080 O   0  0  0  0  0  0  0  0  0  0  0  0
   -5.6610    6.7590   -2.5820 C   0  0  0  0  0  0  0  0  0  0  0  0
   -6.2760    7.7080   -1.6010 C   0  0  0  0  0  0  0  0  0  0  0  0
   -6.4730    5.5550   -2.9450 C   0  0  0  0  0  0  0  0  0  0  0  0
   -0.9190    9.8670   -1.8960 C   0  0  1  0  0  0  0  0  0  0  0  0
   -2.3740   10.2600   -1.5290 C   0  0  0  0  0  0  0  0  0  0  0  0
   -2.2830   11.5040   -0.6090 C   0  0  0  0  0  0  0  0  0  0  0  0
   -0.8190   11.9830   -0.7440 C   0  0  1  0  0  0  0  0  0  0  0  0
   -0.7860   12.8060   -2.0700 C   0  0  0  0  0  0  0  0  0  0  0  0
   -0.2460   12.8030    0.4580 C   0  0  2  0  0  0  0  0  0  0  0  0
   -0.9600   14.1360    0.7380 C   0  0  0  0  0  0  0  0  0  0  0  0
   -0.3980   15.3220    0.0250 C   0  0  0  0  0  0  0  0  0  0  0  0
    0.8030   15.3740   -0.5790 C   0  0  0  0  0  0  0  0  0  0  0  0
    1.7770   14.1920   -0.4990 C   0  0  1  0  0  0  0  0  0  0  0  0
    3.1970   14.7130   -0.1510 C   0  0  0  0  0  0  0  0  0  0  0  0
    3.6740   15.7980   -1.1110 C   0  0  0  0  0  0  0  0  0  0  0  0
    2.7100   16.9810   -1.1190 C   0  0  2  0  0  0  0  0  0  0  0  0
    2.7560   17.6220    0.1600 O   0  0  0  0  0  0  0  0  0  0  0  0
    1.2460   16.5770   -1.4490 C   0  0  0  0  0  0  0  0  0  0  0  0
    1.1420   16.1640   -2.9380 C   0  0  0  0  0  0  0  0  0  0  0  0
    0.3540   17.8370   -1.2850 C   0  0  0  0  0  0  0  0  0  0  0  0
    1.3260   12.9830    0.4290 C   0  0  1  0  0  0  0  0  0  0  0  0
    1.7710   13.2470    1.9000 C   0  0  0  0  0  0  0  0  0  0  0  0
    2.0700   11.6750   -0.0320 C   0  0  0  0  0  0  0  0  0  0  0  0
    1.3940   10.8450   -1.1400 C   0  0  0  0  0  0  0  0  0  0  0  0
   -0.0820   10.5960   -0.8150 C   0  0  2  0  0  0  0  0  0  0  0  0
   -0.1460    9.7510    0.5030 C   0  0  0  0  0  0  0  0  0  0  0  0
    1.3675    7.8907   -1.8181 H   0  0  0  0  0  0  0  0  0  0  0  0
    0.5756    7.1473   -3.2489 H   0  0  0  0  0  0  0  0  0  0  0  0
    0.9673    8.9004   -3.2489 H   0  0  0  0  0  0  0  0  0  0  0  0
   -0.7697    7.8935   -1.0315 H   0  0  0  0  0  0  0  0  0  0  0  0
   -2.0623    8.4145   -3.7256 H   0  0  0  0  0  0  0  0  0  0  0  0
   -1.5634    6.7480   -3.1615 H   0  0  0  0  0  0  0  0  0  0  0  0
   -2.9731    7.1669   -1.1014 H   0  0  0  0  0  0  0  0  0  0  0  0
   -3.6476    8.5995   -1.9848 H   0  0  0  0  0  0  0  0  0  0  0  0
   -3.4381    5.8879   -2.8098 H   0  0  0  0  0  0  0  0  0  0  0  0
   -6.0570    7.3701   -0.5773 H   0  0  0  0  0  0  0  0  0  0  0  0
   -5.8577    8.7140   -1.7524 H   0  0  0  0  0  0  0  0  0  0  0  0
   -7.3651    7.7371   -1.7524 H   0  0  0  0  0  0  0  0  0  0  0  0
   -6.8125    5.0516   -2.0278 H   0  0  0  0  0  0  0  0  0  0  0  0
   -7.3462    5.8665   -3.5370 H   0  0  0  0  0  0  0  0  0  0  0  0
   -5.8570    4.8621   -3.5370 H   0  0  0  0  0  0  0  0  0  0  0  0
   -0.5930   10.1802   -2.8988 H   0  0  0  0  0  0  0  0  0  0  0  0
   -2.9418   10.5029   -2.4393 H   0  0  0  0  0  0  0  0  0  0  0  0
   -2.8910    9.4315   -1.0227 H   0  0  0  0  0  0  0  0  0  0  0  0
   -2.9800   12.2864   -0.9438 H   0  0  0  0  0  0  0  0  0  0  0  0
   -2.5519   11.2732    0.4323 H   0  0  0  0  0  0  0  0  0  0  0  0
   -0.7430   13.8796   -1.8342 H   0  0  0  0  0  0  0  0  0  0  0  0
    0.1015   12.5232   -2.6551 H   0  0  0  0  0  0  0  0  0  0  0  0
   -1.6933   12.5952   -2.6551 H   0  0  0  0  0  0  0  0  0  0  0  0
   -0.4769   12.1554    1.3167 H   0  0  0  0  0  0  0  0  0  0  0  0
   -2.0130   14.0271    0.4391 H   0  0  0  0  0  0  0  0  0  0  0  0
   -0.8254   14.3340    1.8116 H   0  0  0  0  0  0  0  0  0  0  0  0
   -1.0185   16.2296   -0.0091 H   0  0  0  0  0  0  0  0  0  0  0  0
    1.7822   13.7345   -1.4993 H   0  0  0  0  0  0  0  0  0  0  0  0
    3.1809   15.1264    0.8682 H   0  0  0  0  0  0  0  0  0  0  0  0
    3.8930   13.8651   -0.2333 H   0  0  0  0  0  0  0  0  0  0  0  0
    4.6686   16.1461   -0.7954 H   0  0  0  0  0  0  0  0  0  0  0  0
    3.7188   15.3746   -2.1253 H   0  0  0  0  0  0  0  0  0  0  0  0
    3.0337   17.6645   -1.9178 H   0  0  0  0  0  0  0  0  0  0  0  0
    1.8410   17.8190    0.4230 H   0  0  0  0  0  0  0  0  0  0  0  0
    0.8739   15.0993   -3.0053 H   0  0  0  0  0  0  0  0  0  0  0  0
    0.3682   16.7690   -3.4331 H   0  0  0  0  0  0  0  0  0  0  0  0
    2.1101   16.3304   -3.4331 H   0  0  0  0  0  0  0  0  0  0  0  0
    0.2066   18.0452   -0.2150 H   0  0  0  0  0  0  0  0  0  0  0  0
    0.8447   18.6983   -1.7619 H   0  0  0  0  0  0  0  0  0  0  0  0
   -0.6214   17.6604   -1.7619 H   0  0  0  0  0  0  0  0  0  0  0  0
    1.0342   12.8099    2.5900 H   0  0  0  0  0  0  0  0  0  0  0  0
    2.7546   12.7862    2.0738 H   0  0  0  0  0  0  0  0  0  0  0  0
    1.8381   14.3311    2.0738 H   0  0  0  0  0  0  0  0  0  0  0  0
    3.0651   11.9693   -0.3969 H   0  0  0  0  0  0  0  0  0  0  0  0
    2.0780   11.0215    0.8528 H   0  0  0  0  0  0  0  0  0  0  0  0
    1.4657   11.3903   -2.0926 H   0  0  0  0  0  0  0  0  0  0  0  0
    1.9058    9.8741   -1.2128 H   0  0  0  0  0  0  0  0  0  0  0  0
   -0.0951   10.4231    1.3723 H   0  0  0  0  0  0  0  0  0  0  0  0
   -1.0895    9.1862    0.5310 H   0  0  0  0  0  0  0  0  0  0  0  0
    0.7017    9.0505    0.5310 H   0  0  0  0  0  0  0  0  0  0  0  0
  1  2  1  0
  2  3  1  0
  3  4  1  0
  4  5  1  0
  5  6  1  0
  6  7  1  0
  7  8  1  0
  7  9  1  0
  2 10  1  0
 10 11  1  0
 11 12  1  0
 12 13  1  0
 13 14  1  6
 13 15  1  0
 15 16  1  0
 16 17  1  0
 17 18  2  0
 18 19  1  0
 19 20  1  0
 20 21  1  0
 21 22  1  0
 22 23  1  0
 22 24  1  0
 24 25  1  0
 24 26  1  0
 19 27  1  0
 27 28  1  1
 27 29  1  0
 29 30  1  0
 30 31  1  0
 31 32  1  1
  7  5  1  0
 31 10  1  0
 31 13  1  0
 27 15  1  0
 24 18  1  0
  1 33  1  0
  1 34  1  0
  1 35  1  0
  2 36  1  1
  3 37  1  0
  3 38  1  0
  4 39  1  0
  4 40  1  0
  5 41  1  6
  8 42  1  0
  8 43  1  0
  8 44  1  0
  9 45  1  0
  9 46  1  0
  9 47  1  0
 10 48  1  6
 11 49  1  0
 11 50  1  0
 12 51  1  0
 12 52  1  0
 14 53  1  0
 14 54  1  0
 14 55  1  0
 15 56  1  1
 16 57  1  0
 16 58  1  0
 17 59  1  0
 19 60  1  6
 20 61  1  0
 20 62  1  0
 21 63  1  0
 21 64  1  0
 22 65  1  6
 23 66  1  0
 25 67  1  0
 25 68  1  0
 25 69  1  0
 26 70  1  0
 26 71  1  0
 26 72  1  0
 28 73  1  0
 28 74  1  0
 28 75  1  0
 29 76  1  0
 29 77  1  0
 30 78  1  0
 30 79  1  0
 32 80  1  0
 32 81  1  0
 32 82  1  0
M  END
>  <meeko>  (20) 
{"is_sidechain": [false], "intermolecular_energy": 2.731, "internal_energy": -0.839}

$$$$
