EPH_relaxed_0001_pdb2pqr_Repair_351_r2_0001_out
     RDKit          3D

 82 86  0  0  0  0  0  0  0  0999 V2000
   -0.4610    7.5240   -2.3260 C   0  0  0  0  0  0  0  0  0  0  0  0
   -1.2040    8.2240   -1.1850 C   0  0  2  0  0  0  0  0  0  0  0  0
   -2.6550    8.5790   -1.5680 C   0  0  0  0  0  0  0  0  0  0  0  0
   -3.3800    7.4660   -2.3290 C   0  0  0  0  0  0  0  0  0  0  0  0
   -4.8310    7.3950   -1.9580 C   0  0  2  0  0  0  0  0  0  0  0  0
   -5.2920    6.0880   -1.5910 O   0  0  0  0  0  0  0  0  0  0  0  0
   -5.8690    6.6540   -2.7780 C   0  0  0  0  0  0  0  0  0  0  0  0
   -5.5000    5.9330   -4.0370 C   0  0  0  0  0  0  0  0  0  0  0  0
   -7.3080    7.0360   -2.6260 C   0  0  0  0  0  0  0  0  0  0  0  0
   -0.4520    9.4820   -0.7680 C   0  0  1  0  0  0  0  0  0  0  0  0
    0.6890    9.1900    0.2420 C   0  0  0  0  0  0  0  0  0  0  0  0
    1.8360   10.1820   -0.0790 C   0  0  0  0  0  0  0  0  0  0  0  0
    1.1980   11.2210   -1.0310 C   0  0  1  0  0  0  0  0  0  0  0  0
    0.4360   12.2090   -0.0930 C   0  0  0  0  0  0  0  0  0  0  0  0
    2.1780   11.9740   -1.9890 C   0  0  2  0  0  0  0  0  0  0  0  0
    3.2400   12.8390   -1.2880 C   0  0  0  0  0  0  0  0  0  0  0  0
    2.8430   14.2560   -1.0370 C   0  0  0  0  0  0  0  0  0  0  0  0
    1.8020   14.8900   -1.6080 C   0  0  0  0  0  0  0  0  0  0  0  0
    0.9550   14.2010   -2.6860 C   0  0  1  0  0  0  0  0  0  0  0  0
    0.7380   15.1740   -3.8740 C   0  0  0  0  0  0  0  0  0  0  0  0
    0.1480   16.5110   -3.4350 C   0  0  0  0  0  0  0  0  0  0  0  0
    1.0480   17.1920   -2.4070 C   0  0  2  0  0  0  0  0  0  0  0  0
    2.2760   17.5600   -3.0410 O   0  0  0  0  0  0  0  0  0  0  0  0
    1.3450   16.3030   -1.1680 C   0  0  0  0  0  0  0  0  0  0  0  0
    0.0610   16.1540   -0.3140 C   0  0  0  0  0  0  0  0  0  0  0  0
    2.3740   17.0510   -0.2780 C   0  0  0  0  0  0  0  0  0  0  0  0
    1.4610   12.7690   -3.1540 C   0  0  1  0  0  0  0  0  0  0  0  0
    2.5100   12.9230   -4.2980 C   0  0  0  0  0  0  0  0  0  0  0  0
    0.2500   11.9710   -3.7670 C   0  0  0  0  0  0  0  0  0  0  0  0
   -0.6090   11.1510   -2.7850 C   0  0  0  0  0  0  0  0  0  0  0  0
    0.2700   10.2800   -1.8830 C   0  0  2  0  0  0  0  0  0  0  0  0
    1.0320    9.2610   -2.7970 C   0  0  0  0  0  0  0  0  0  0  0  0
    0.2795    6.8263   -1.9078 H   0  0  0  0  0  0  0  0  0  0  0  0
   -1.1802    6.9676   -2.9450 H   0  0  0  0  0  0  0  0  0  0  0  0
    0.0515    8.2751   -2.9450 H   0  0  0  0  0  0  0  0  0  0  0  0
   -1.2485    7.5214   -0.3398 H   0  0  0  0  0  0  0  0  0  0  0  0
   -3.2156    8.7914   -0.6457 H   0  0  0  0  0  0  0  0  0  0  0  0
   -2.6068    9.4490   -2.2394 H   0  0  0  0  0  0  0  0  0  0  0  0
   -3.2971    7.6598   -3.4086 H   0  0  0  0  0  0  0  0  0  0  0  0
   -2.9108    6.5071   -2.0636 H   0  0  0  0  0  0  0  0  0  0  0  0
   -4.8020    8.4183   -1.5554 H   0  0  0  0  0  0  0  0  0  0  0  0
   -5.0123    4.9800   -3.7843 H   0  0  0  0  0  0  0  0  0  0  0  0
   -6.4078    5.7354   -4.6259 H   0  0  0  0  0  0  0  0  0  0  0  0
   -4.8088    6.5538   -4.6259 H   0  0  0  0  0  0  0  0  0  0  0  0
   -7.5587    7.1026   -1.5570 H   0  0  0  0  0  0  0  0  0  0  0  0
   -7.4810    8.0112   -3.1046 H   0  0  0  0  0  0  0  0  0  0  0  0
   -7.9419    6.2750   -3.1046 H   0  0  0  0  0  0  0  0  0  0  0  0
   -1.2882   10.0713   -0.3637 H   0  0  0  0  0  0  0  0  0  0  0  0
    0.3323    9.3437    1.2711 H   0  0  0  0  0  0  0  0  0  0  0  0
    1.0330    8.1485    0.1586 H   0  0  0  0  0  0  0  0  0  0  0  0
    2.1980   10.6675    0.8393 H   0  0  0  0  0  0  0  0  0  0  0  0
    2.7061    9.6821   -0.5297 H   0  0  0  0  0  0  0  0  0  0  0  0
    0.6376   11.9476    0.9563 H   0  0  0  0  0  0  0  0  0  0  0  0
    0.7779   13.2363   -0.2871 H   0  0  0  0  0  0  0  0  0  0  0  0
   -0.6445   12.1393   -0.2871 H   0  0  0  0  0  0  0  0  0  0  0  0
    2.7304   11.1473   -2.4596 H   0  0  0  0  0  0  0  0  0  0  0  0
    3.4715   12.3739   -0.3184 H   0  0  0  0  0  0  0  0  0  0  0  0
    4.0998   12.8803   -1.9729 H   0  0  0  0  0  0  0  0  0  0  0  0
    3.4531   14.8309   -0.3248 H   0  0  0  0  0  0  0  0  0  0  0  0
   -0.0106   13.9692   -2.2129 H   0  0  0  0  0  0  0  0  0  0  0  0
    1.7074   15.3589   -4.3600 H   0  0  0  0  0  0  0  0  0  0  0  0
    0.0222   14.7037   -4.5643 H   0  0  0  0  0  0  0  0  0  0  0  0
    0.0453   17.1652   -4.3134 H   0  0  0  0  0  0  0  0  0  0  0  0
   -0.8345   16.3278   -2.9756 H   0  0  0  0  0  0  0  0  0  0  0  0
    0.5122   18.0779   -2.0354 H   0  0  0  0  0  0  0  0  0  0  0  0
    2.2180   17.2920   -3.9740 H   0  0  0  0  0  0  0  0  0  0  0  0
    0.3250   16.1846    0.7534 H   0  0  0  0  0  0  0  0  0  0  0  0
   -0.6304   16.9779   -0.5445 H   0  0  0  0  0  0  0  0  0  0  0  0
   -0.4233   15.1936   -0.5445 H   0  0  0  0  0  0  0  0  0  0  0  0
    2.1361   16.8781    0.7820 H   0  0  0  0  0  0  0  0  0  0  0  0
    3.3856   16.6760   -0.4927 H   0  0  0  0  0  0  0  0  0  0  0  0
    2.3294   18.1289   -0.4927 H   0  0  0  0  0  0  0  0  0  0  0  0
    3.5092   13.0697   -3.8620 H   0  0  0  0  0  0  0  0  0  0  0  0
    2.5108   12.0153   -4.9194 H   0  0  0  0  0  0  0  0  0  0  0  0
    2.2499   13.7926   -4.9194 H   0  0  0  0  0  0  0  0  0  0  0  0
   -0.4115   12.6977   -4.2613 H   0  0  0  0  0  0  0  0  0  0  0  0
    0.7047   11.2297   -4.4405 H   0  0  0  0  0  0  0  0  0  0  0  0
   -1.1960   11.8393   -2.1592 H   0  0  0  0  0  0  0  0  0  0  0  0
   -1.2748   10.4950   -3.3650 H   0  0  0  0  0  0  0  0  0  0  0  0
    1.5727    8.5380   -2.1686 H   0  0  0  0  0  0  0  0  0  0  0  0
    0.3099    8.7269   -3.4321 H   0  0  0  0  0  0  0  0  0  0  0  0
    1.7484    9.8027   -3.4321 H   0  0  0  0  0  0  0  0  0  0  0  0
  1  2  1  0
  2  3  1  0
  3  4  1  0
  4  5  1  0
  5  6  1  0
  6  7  1  0
  7  8  1  0
  7  9  1  0
  2 10  1  0
 10 11  1  0
 11 12  1  0
 12 13  1  0
 13 14  1  1
 13 15  1  0
 15 16  1  0
 16 17  1  0
 17 18  2  0
 18 19  1  0
 19 20  1  0
 20 21  1  0
 21 22  1  0
 22 23  1  0
 22 24  1  0
 24 25  1  0
 24 26  1  0
 19 27  1  0
 27 28  1  6
 27 29  1  0
 29 30  1  0
 30 31  1  0
 31 32  1  6
  7  5  1  0
 31 10  1  0
 31 13  1  0
 27 15  1  0
 24 18  1  0
  1 33  1  0
  1 34  1  0
  1 35  1  0
  2 36  1  1
  3 37  1  0
  3 38  1  0
  4 39  1  0
  4 40  1  0
  5 41  1  1
  8 42  1  0
  8 43  1  0
  8 44  1  0
  9 45  1  0
  9 46  1  0
  9 47  1  0
 10 48  1  1
 11 49  1  0
 11 50  1  0
 12 51  1  0
 12 52  1  0
 14 53  1  0
 14 54  1  0
 14 55  1  0
 15 56  1  6
 16 57  1  0
 16 58  1  0
 17 59  1  0
 19 60  1  1
 20 61  1  0
 20 62  1  0
 21 63  1  0
 21 64  1  0
 22 65  1  1
 23 66  1  0
 25 67  1  0
 25 68  1  0
 25 69  1  0
 26 70  1  0
 26 71  1  0
 26 72  1  0
 28 73  1  0
 28 74  1  0
 28 75  1  0
 29 76  1  0
 29 77  1  0
 30 78  1  0
 30 79  1  0
 32 80  1  0
 32 81  1  0
 32 82  1  0
M  END
>  <meeko>  (1) 
{"is_sidechain": [false], "intermolecular_energy": 2.731, "internal_energy": -0.839}

$$$$
EPH_relaxed_0001_pdb2pqr_Repair_351_r2_0001_out
     RDKit          3D

 82 86  0  0  0  0  0  0  0  0999 V2000
   -0.3290   18.0380    0.1300 C   0  0  0  0  0  0  0  0  0  0  0  0
    0.9650   17.4040   -0.3860 C   0  0  2  0  0  0  0  0  0  0  0  0
    1.8080   18.3950   -1.2140 C   0  0  0  0  0  0  0  0  0  0  0  0
    2.1650   19.6780   -0.4590 C   0  0  0  0  0  0  0  0  0  0  0  0
    3.4340   19.5260    0.3240 C   0  0  2  0  0  0  0  0  0  0  0  0
    3.4270   18.4490    1.2700 O   0  0  0  0  0  0  0  0  0  0  0  0
    3.5290   19.7730    1.8180 C   0  0  0  0  0  0  0  0  0  0  0  0
    2.3350   20.1940    2.6170 C   0  0  0  0  0  0  0  0  0  0  0  0
    4.8700   20.0800    2.4090 C   0  0  0  0  0  0  0  0  0  0  0  0
    0.6420   16.1710   -1.2220 C   0  0  1  0  0  0  0  0  0  0  0  0
    0.8130   16.4190   -2.7440 C   0  0  0  0  0  0  0  0  0  0  0  0
    1.3340   15.0940   -3.3580 C   0  0  0  0  0  0  0  0  0  0  0  0
    1.1310   14.0410   -2.2430 C   0  0  1  0  0  0  0  0  0  0  0  0
   -0.3740   13.6400   -2.3390 C   0  0  0  0  0  0  0  0  0  0  0  0
    2.0670   12.7900   -2.2960 C   0  0  2  0  0  0  0  0  0  0  0  0
    1.9130   11.9130   -3.5510 C   0  0  0  0  0  0  0  0  0  0  0  0
    0.9120   10.8110   -3.4400 C   0  0  0  0  0  0  0  0  0  0  0  0
    0.3730   10.3560   -2.2940 C   0  0  0  0  0  0  0  0  0  0  0  0
    0.8370   10.8970   -0.9360 C   0  0  1  0  0  0  0  0  0  0  0  0
    1.0820    9.7140    0.0370 C   0  0  0  0  0  0  0  0  0  0  0  0
   -0.1310    8.7970    0.1590 C   0  0  0  0  0  0  0  0  0  0  0  0
   -0.5270    8.2320   -1.2030 C   0  0  2  0  0  0  0  0  0  0  0  0
    0.5110    7.3580   -1.6590 O   0  0  0  0  0  0  0  0  0  0  0  0
   -0.7890    9.3320   -2.2700 C   0  0  0  0  0  0  0  0  0  0  0  0
   -2.0960   10.0890   -1.9260 C   0  0  0  0  0  0  0  0  0  0  0  0
   -1.0400    8.6280   -3.6300 C   0  0  0  0  0  0  0  0  0  0  0  0
    2.0560   11.9160   -0.9760 C   0  0  1  0  0  0  0  0  0  0  0  0
    3.4050   11.1340   -0.9490 C   0  0  0  0  0  0  0  0  0  0  0  0
    2.0300   12.8010    0.3260 C   0  0  0  0  0  0  0  0  0  0  0  0
    1.1830   14.0870    0.2760 C   0  0  0  0  0  0  0  0  0  0  0  0
    1.5000   14.9030   -0.9810 C   0  0  2  0  0  0  0  0  0  0  0  0
    3.0030   15.3400   -0.9010 C   0  0  0  0  0  0  0  0  0  0  0  0
   -0.3250   18.0360    1.2300 H   0  0  0  0  0  0  0  0  0  0  0  0
   -0.4008   19.0733   -0.2346 H   0  0  0  0  0  0  0  0  0  0  0  0
   -1.1911   17.4603   -0.2346 H   0  0  0  0  0  0  0  0  0  0  0  0
    1.5631   17.1136    0.4903 H   0  0  0  0  0  0  0  0  0  0  0  0
    2.7419   17.8944   -1.5095 H   0  0  0  0  0  0  0  0  0  0  0  0
    1.1984   18.6905   -2.0807 H   0  0  0  0  0  0  0  0  0  0  0  0
    2.2895   20.4955   -1.1844 H   0  0  0  0  0  0  0  0  0  0  0  0
    1.3508   19.8980    0.2472 H   0  0  0  0  0  0  0  0  0  0  0  0
    4.0302   19.8941   -0.5240 H   0  0  0  0  0  0  0  0  0  0  0  0
    2.5646   20.1131    3.6897 H   0  0  0  0  0  0  0  0  0  0  0  0
    2.0802   21.2362    2.3742 H   0  0  0  0  0  0  0  0  0  0  0  0
    1.4829   19.5421    2.3742 H   0  0  0  0  0  0  0  0  0  0  0  0
    4.7994   20.0638    3.5066 H   0  0  0  0  0  0  0  0  0  0  0  0
    5.5983   19.3254    2.0773 H   0  0  0  0  0  0  0  0  0  0  0  0
    5.1975   21.0764    2.0773 H   0  0  0  0  0  0  0  0  0  0  0  0
   -0.3930   15.9930   -0.8946 H   0  0  0  0  0  0  0  0  0  0  0  0
   -0.1531   16.6909   -3.1943 H   0  0  0  0  0  0  0  0  0  0  0  0
    1.5150   17.2445   -2.9330 H   0  0  0  0  0  0  0  0  0  0  0  0
    0.7548   14.8271   -4.2543 H   0  0  0  0  0  0  0  0  0  0  0  0
    2.3842   15.1666   -3.6771 H   0  0  0  0  0  0  0  0  0  0  0  0
   -0.7893   13.5294   -1.3264 H   0  0  0  0  0  0  0  0  0  0  0  0
   -0.9280   14.4219   -2.8791 H   0  0  0  0  0  0  0  0  0  0  0  0
   -0.4656   12.6861   -2.8791 H   0  0  0  0  0  0  0  0  0  0  0  0
    3.0656   13.2453   -2.3697 H   0  0  0  0  0  0  0  0  0  0  0  0
    1.6114   12.5634   -4.3852 H   0  0  0  0  0  0  0  0  0  0  0  0
    2.8871   11.4251   -3.7027 H   0  0  0  0  0  0  0  0  0  0  0  0
    0.5874   10.3300   -4.3745 H   0  0  0  0  0  0  0  0  0  0  0  0
    0.0143   11.5238   -0.5614 H   0  0  0  0  0  0  0  0  0  0  0  0
    1.9342    9.1244   -0.3320 H   0  0  0  0  0  0  0  0  0  0  0  0
    1.2832   10.1363    1.0326 H   0  0  0  0  0  0  0  0  0  0  0  0
    0.1130    7.9655    0.8366 H   0  0  0  0  0  0  0  0  0  0  0  0
   -0.9744    9.3813    0.5554 H   0  0  0  0  0  0  0  0  0  0  0  0
   -1.4749    7.6894   -1.0720 H   0  0  0  0  0  0  0  0  0  0  0  0
    1.2670    7.9100   -1.9200 H   0  0  0  0  0  0  0  0  0  0  0  0
   -2.2061   10.1528   -0.8334 H   0  0  0  0  0  0  0  0  0  0  0  0
   -2.0549   11.1031   -2.3502 H   0  0  0  0  0  0  0  0  0  0  0  0
   -2.9552    9.5487   -2.3502 H   0  0  0  0  0  0  0  0  0  0  0  0
   -1.4045    7.6056   -3.4518 H   0  0  0  0  0  0  0  0  0  0  0  0
   -1.7927    9.1913   -4.2011 H   0  0  0  0  0  0  0  0  0  0  0  0
   -0.1007    8.5881   -4.2011 H   0  0  0  0  0  0  0  0  0  0  0  0
    3.7066   10.9591    0.0943 H   0  0  0  0  0  0  0  0  0  0  0  0
    3.2795   10.1686   -1.4611 H   0  0  0  0  0  0  0  0  0  0  0  0
    4.1804   11.7227   -1.4611 H   0  0  0  0  0  0  0  0  0  0  0  0
    1.6402   12.1776    1.1442 H   0  0  0  0  0  0  0  0  0  0  0  0
    3.0663   13.1444    0.4609 H   0  0  0  0  0  0  0  0  0  0  0  0
    0.1170   13.8159    0.2698 H   0  0  0  0  0  0  0  0  0  0  0  0
    1.4195   14.6977    1.1598 H   0  0  0  0  0  0  0  0  0  0  0  0
    3.3038   15.4275    0.1535 H   0  0  0  0  0  0  0  0  0  0  0  0
    3.6308   14.5872   -1.4002 H   0  0  0  0  0  0  0  0  0  0  0  0
    3.1293   16.3121   -1.4002 H   0  0  0  0  0  0  0  0  0  0  0  0
  1  2  1  0
  2  3  1  0
  3  4  1  0
  4  5  1  0
  5  6  1  0
  6  7  1  0
  7  8  1  0
  7  9  1  0
  2 10  1  0
 10 11  1  0
 11 12  1  0
 12 13  1  0
 13 14  1  1
 13 15  1  0
 15 16  1  0
 16 17  1  0
 17 18  2  0
 18 19  1  0
 19 20  1  0
 20 21  1  0
 21 22  1  0
 22 23  1  0
 22 24  1  0
 24 25  1  0
 24 26  1  0
 19 27  1  0
 27 28  1  1
 27 29  1  0
 29 30  1  0
 30 31  1  0
 31 32  1  6
  7  5  1  0
 31 10  1  0
 31 13  1  0
 27 15  1  0
 24 18  1  0
  1 33  1  0
  1 34  1  0
  1 35  1  0
  2 36  1  1
  3 37  1  0
  3 38  1  0
  4 39  1  0
  4 40  1  0
  5 41  1  6
  8 42  1  0
  8 43  1  0
  8 44  1  0
  9 45  1  0
  9 46  1  0
  9 47  1  0
 10 48  1  6
 11 49  1  0
 11 50  1  0
 12 51  1  0
 12 52  1  0
 14 53  1  0
 14 54  1  0
 14 55  1  0
 15 56  1  6
 16 57  1  0
 16 58  1  0
 17 59  1  0
 19 60  1  1
 20 61  1  0
 20 62  1  0
 21 63  1  0
 21 64  1  0
 22 65  1  1
 23 66  1  0
 25 67  1  0
 25 68  1  0
 25 69  1  0
 26 70  1  0
 26 71  1  0
 26 72  1  0
 28 73  1  0
 28 74  1  0
 28 75  1  0
 29 76  1  0
 29 77  1  0
 30 78  1  0
 30 79  1  0
 32 80  1  0
 32 81  1  0
 32 82  1  0
M  END
>  <meeko>  (2) 
{"is_sidechain": [false], "intermolecular_energy": 2.731, "internal_energy": -0.839}

$$$$
EPH_relaxed_0001_pdb2pqr_Repair_351_r2_0001_out
     RDKit          3D

 82 86  0  0  0  0  0  0  0  0999 V2000
    0.4650    9.1160   -2.7960 C   0  0  0  0  0  0  0  0  0  0  0  0
    1.3510   10.1450   -3.5030 C   0  0  2  0  0  0  0  0  0  0  0  0
    2.8330   10.0130   -3.0960 C   0  0  0  0  0  0  0  0  0  0  0  0
    3.7980   10.7290   -4.0450 C   0  0  0  0  0  0  0  0  0  0  0  0
    5.1680   10.8550   -3.4500 C   0  0  2  0  0  0  0  0  0  0  0  0
    5.8570   12.0660   -3.7870 O   0  0  0  0  0  0  0  0  0  0  0  0
    6.4410   10.8480   -4.2740 C   0  0  0  0  0  0  0  0  0  0  0  0
    6.4060   10.7090   -5.7640 C   0  0  0  0  0  0  0  0  0  0  0  0
    7.7280   10.4840   -3.6000 C   0  0  0  0  0  0  0  0  0  0  0  0
    0.8520   11.5540   -3.2030 C   0  0  1  0  0  0  0  0  0  0  0  0
   -0.6880   11.6170   -3.0270 C   0  0  0  0  0  0  0  0  0  0  0  0
   -0.9710   12.6910   -1.9450 C   0  0  0  0  0  0  0  0  0  0  0  0
    0.3720   13.4370   -1.7760 C   0  0  1  0  0  0  0  0  0  0  0  0
    0.4160   14.4570   -2.9570 C   0  0  0  0  0  0  0  0  0  0  0  0
    0.6040   14.1390   -0.3990 C   0  0  2  0  0  0  0  0  0  0  0  0
   -0.3930   15.2610   -0.0620 C   0  0  0  0  0  0  0  0  0  0  0  0
    0.0100   16.6280   -0.5080 C   0  0  0  0  0  0  0  0  0  0  0  0
    1.2460   16.9910   -0.8980 C   0  0  0  0  0  0  0  0  0  0  0  0
    2.4180   16.0030   -0.8210 C   0  0  1  0  0  0  0  0  0  0  0  0
    3.6450   16.7040   -0.1810 C   0  0  0  0  0  0  0  0  0  0  0  0
    4.0180   17.9980   -0.8970 C   0  0  0  0  0  0  0  0  0  0  0  0
    2.8470   18.9770   -0.9020 C   0  0  2  0  0  0  0  0  0  0  0  0
    2.5930   19.3990    0.4420 O   0  0  0  0  0  0  0  0  0  0  0  0
    1.5500   18.3780   -1.5150 C   0  0  0  0  0  0  0  0  0  0  0  0
    1.7310   18.2010   -3.0430 C   0  0  0  0  0  0  0  0  0  0  0  0
    0.4110   19.4160   -1.3300 C   0  0  0  0  0  0  0  0  0  0  0  0
    2.0980   14.5990   -0.1490 C   0  0  1  0  0  0  0  0  0  0  0  0
    2.2810   14.6950    1.3970 C   0  0  0  0  0  0  0  0  0  0  0  0
    3.1440   13.5360   -0.6550 C   0  0  0  0  0  0  0  0  0  0  0  0
    2.8010   12.7910   -1.9590 C   0  0  0  0  0  0  0  0  0  0  0  0
    1.3750   12.2340   -1.9130 C   0  0  2  0  0  0  0  0  0  0  0  0
    1.3060   11.1880   -0.7490 C   0  0  0  0  0  0  0  0  0  0  0  0
    0.5653    9.2325   -1.7068 H   0  0  0  0  0  0  0  0  0  0  0  0
   -0.5841    9.2741   -3.0866 H   0  0  0  0  0  0  0  0  0  0  0  0
    0.7772    8.1020   -3.0866 H   0  0  0  0  0  0  0  0  0  0  0  0
    1.2869    9.9500   -4.5837 H   0  0  0  0  0  0  0  0  0  0  0  0
    2.9559   10.4389   -2.0893 H   0  0  0  0  0  0  0  0  0  0  0  0
    3.0821    8.9422   -3.1319 H   0  0  0  0  0  0  0  0  0  0  0  0
    3.8673   10.1566   -4.9818 H   0  0  0  0  0  0  0  0  0  0  0  0
    3.4096   11.7414   -4.2299 H   0  0  0  0  0  0  0  0  0  0  0  0
    4.8610   10.2835   -2.5616 H   0  0  0  0  0  0  0  0  0  0  0  0
    6.1454    9.6739   -6.0297 H   0  0  0  0  0  0  0  0  0  0  0  0
    5.6525   11.3948   -6.1786 H   0  0  0  0  0  0  0  0  0  0  0  0
    7.3944   10.9562   -6.1786 H   0  0  0  0  0  0  0  0  0  0  0  0
    7.5940   10.5219   -2.5089 H   0  0  0  0  0  0  0  0  0  0  0  0
    8.0232    9.4671   -3.8981 H   0  0  0  0  0  0  0  0  0  0  0  0
    8.5121   11.1956   -3.8981 H   0  0  0  0  0  0  0  0  0  0  0  0
    1.2393   12.0794   -4.0884 H   0  0  0  0  0  0  0  0  0  0  0  0
   -1.1665   11.9002   -3.9761 H   0  0  0  0  0  0  0  0  0  0  0  0
   -1.0917   10.6386   -2.7274 H   0  0  0  0  0  0  0  0  0  0  0  0
   -1.7593   13.3813   -2.2798 H   0  0  0  0  0  0  0  0  0  0  0  0
   -1.3248   12.2497   -1.0016 H   0  0  0  0  0  0  0  0  0  0  0  0
    0.4601   15.4804   -2.5561 H   0  0  0  0  0  0  0  0  0  0  0  0
    1.3067   14.2659   -3.5735 H   0  0  0  0  0  0  0  0  0  0  0  0
   -0.4879   14.3434   -3.5735 H   0  0  0  0  0  0  0  0  0  0  0  0
    0.3952   13.3295    0.3159 H   0  0  0  0  0  0  0  0  0  0  0  0
   -1.3534   15.0170   -0.5397 H   0  0  0  0  0  0  0  0  0  0  0  0
   -0.4448   15.3022    1.0360 H   0  0  0  0  0  0  0  0  0  0  0  0
   -0.7694   17.4041   -0.5187 H   0  0  0  0  0  0  0  0  0  0  0  0
    2.6481   15.7225   -1.8595 H   0  0  0  0  0  0  0  0  0  0  0  0
    3.4108   16.9364    0.8684 H   0  0  0  0  0  0  0  0  0  0  0  0
    4.5014   16.0184   -0.2622 H   0  0  0  0  0  0  0  0  0  0  0  0
    4.8721   18.4613   -0.3813 H   0  0  0  0  0  0  0  0  0  0  0  0
    4.2801   17.7595   -1.9384 H   0  0  0  0  0  0  0  0  0  0  0  0
    3.1312   19.8277   -1.5388 H   0  0  0  0  0  0  0  0  0  0  0  0
    2.3960   20.3510    0.4190 H   0  0  0  0  0  0  0  0  0  0  0  0
    2.5054   17.4438   -3.2352 H   0  0  0  0  0  0  0  0  0  0  0  0
    0.7801   17.8746   -3.4895 H   0  0  0  0  0  0  0  0  0  0  0  0
    2.0360   19.1589   -3.4895 H   0  0  0  0  0  0  0  0  0  0  0  0
    0.2333   19.5780   -0.2566 H   0  0  0  0  0  0  0  0  0  0  0  0
    0.7012   20.3667   -1.8011 H   0  0  0  0  0  0  0  0  0  0  0  0
   -0.5087   19.0390   -1.8011 H   0  0  0  0  0  0  0  0  0  0  0  0
    1.4137   14.2400    1.8978 H   0  0  0  0  0  0  0  0  0  0  0  0
    3.1964   14.1610    1.6917 H   0  0  0  0  0  0  0  0  0  0  0  0
    2.3619   15.7517    1.6917 H   0  0  0  0  0  0  0  0  0  0  0  0
    4.0998   14.0577   -0.8112 H   0  0  0  0  0  0  0  0  0  0  0  0
    3.1650   12.7592    0.1236 H   0  0  0  0  0  0  0  0  0  0  0  0
    2.8879   13.4882   -2.8054 H   0  0  0  0  0  0  0  0  0  0  0  0
    3.5019   11.9516   -2.0783 H   0  0  0  0  0  0  0  0  0  0  0  0
    1.3406   11.7121    0.2175 H   0  0  0  0  0  0  0  0  0  0  0  0
    0.3683   10.6178   -0.8235 H   0  0  0  0  0  0  0  0  0  0  0  0
    2.1607   10.4996   -0.8235 H   0  0  0  0  0  0  0  0  0  0  0  0
  1  2  1  0
  2  3  1  0
  3  4  1  0
  4  5  1  0
  5  6  1  0
  6  7  1  0
  7  8  1  0
  7  9  1  0
  2 10  1  0
 10 11  1  0
 11 12  1  0
 12 13  1  0
 13 14  1  6
 13 15  1  0
 15 16  1  0
 16 17  1  0
 17 18  2  0
 18 19  1  0
 19 20  1  0
 20 21  1  0
 21 22  1  0
 22 23  1  0
 22 24  1  0
 24 25  1  0
 24 26  1  0
 19 27  1  0
 27 28  1  1
 27 29  1  0
 29 30  1  0
 30 31  1  0
 31 32  1  1
  7  5  1  0
 31 10  1  0
 31 13  1  0
 27 15  1  0
 24 18  1  0
  1 33  1  0
  1 34  1  0
  1 35  1  0
  2 36  1  6
  3 37  1  0
  3 38  1  0
  4 39  1  0
  4 40  1  0
  5 41  1  1
  8 42  1  0
  8 43  1  0
  8 44  1  0
  9 45  1  0
  9 46  1  0
  9 47  1  0
 10 48  1  6
 11 49  1  0
 11 50  1  0
 12 51  1  0
 12 52  1  0
 14 53  1  0
 14 54  1  0
 14 55  1  0
 15 56  1  1
 16 57  1  0
 16 58  1  0
 17 59  1  0
 19 60  1  6
 20 61  1  0
 20 62  1  0
 21 63  1  0
 21 64  1  0
 22 65  1  6
 23 66  1  0
 25 67  1  0
 25 68  1  0
 25 69  1  0
 26 70  1  0
 26 71  1  0
 26 72  1  0
 28 73  1  0
 28 74  1  0
 28 75  1  0
 29 76  1  0
 29 77  1  0
 30 78  1  0
 30 79  1  0
 32 80  1  0
 32 81  1  0
 32 82  1  0
M  END
>  <meeko>  (3) 
{"is_sidechain": [false], "intermolecular_energy": 2.731, "internal_energy": -0.839}

$$$$
EPH_relaxed_0001_pdb2pqr_Repair_351_r2_0001_out
     RDKit          3D

 82 86  0  0  0  0  0  0  0  0999 V2000
    2.2100   19.3290   -2.2600 C   0  0  0  0  0  0  0  0  0  0  0  0
    1.6900   19.2440   -0.8220 C   0  0  2  0  0  0  0  0  0  0  0  0
    2.7050   19.7980    0.1970 C   0  0  0  0  0  0  0  0  0  0  0  0
    3.6210   18.7290    0.7980 C   0  0  0  0  0  0  0  0  0  0  0  0
    3.7910   18.9110    2.2760 C   0  0  2  0  0  0  0  0  0  0  0  0
    4.2940   20.1940    2.6670 O   0  0  0  0  0  0  0  0  0  0  0  0
    5.1410   19.0690    2.9500 C   0  0  0  0  0  0  0  0  0  0  0  0
    6.4130   19.0510    2.1620 C   0  0  0  0  0  0  0  0  0  0  0  0
    5.2540   18.7510    4.4080 C   0  0  0  0  0  0  0  0  0  0  0  0
    1.3430   17.8000   -0.4790 C   0  0  1  0  0  0  0  0  0  0  0  0
    0.0650   17.6830    0.3940 C   0  0  0  0  0  0  0  0  0  0  0  0
   -0.6570   16.3830   -0.0430 C   0  0  0  0  0  0  0  0  0  0  0  0
    0.3820   15.6290   -0.9060 C   0  0  1  0  0  0  0  0  0  0  0  0
    1.3150   14.9150    0.1230 C   0  0  0  0  0  0  0  0  0  0  0  0
   -0.1900   14.6260   -1.9590 C   0  0  2  0  0  0  0  0  0  0  0  0
   -0.9860   13.4470   -1.3720 C   0  0  0  0  0  0  0  0  0  0  0  0
   -0.1830   12.2270   -1.0620 C   0  0  0  0  0  0  0  0  0  0  0  0
    1.0630   11.9770   -1.5060 C   0  0  0  0  0  0  0  0  0  0  0  0
    1.7540   12.9300   -2.4900 C   0  0  1  0  0  0  0  0  0  0  0  0
    2.4030   12.1100   -3.6350 C   0  0  0  0  0  0  0  0  0  0  0  0
    3.3410   11.0230   -3.1180 C   0  0  0  0  0  0  0  0  0  0  0  0
    2.6030   10.0620   -2.1900 C   0  0  2  0  0  0  0  0  0  0  0  0
    1.6360    9.3350   -2.9540 O   0  0  0  0  0  0  0  0  0  0  0  0
    1.9010   10.7770   -1.0020 C   0  0  0  0  0  0  0  0  0  0  0  0
    2.9650   11.3090   -0.0110 C   0  0  0  0  0  0  0  0  0  0  0  0
    1.0780    9.7140   -0.2250 C   0  0  0  0  0  0  0  0  0  0  0  0
    0.8680   14.1340   -3.0280 C   0  0  1  0  0  0  0  0  0  0  0  0
    0.0580   13.6800   -4.2810 C   0  0  0  0  0  0  0  0  0  0  0  0
    1.8160   15.2960   -3.5090 C   0  0  0  0  0  0  0  0  0  0  0  0
    2.2510   16.3230   -2.4470 C   0  0  0  0  0  0  0  0  0  0  0  0
    1.0440   16.8410   -1.6580 C   0  0  2  0  0  0  0  0  0  0  0  0
    0.0990   17.5830   -2.6630 C   0  0  0  0  0  0  0  0  0  0  0  0
    3.2955   19.5064   -2.2475 H   0  0  0  0  0  0  0  0  0  0  0  0
    1.9989   18.3844   -2.7827 H   0  0  0  0  0  0  0  0  0  0  0  0
    1.7091   20.1572   -2.7827 H   0  0  0  0  0  0  0  0  0  0  0  0
    0.7865   19.8684   -0.7601 H   0  0  0  0  0  0  0  0  0  0  0  0
    3.3315   20.5471   -0.3093 H   0  0  0  0  0  0  0  0  0  0  0  0
    2.1248   20.2272    1.0271 H   0  0  0  0  0  0  0  0  0  0  0  0
    3.1835   17.7376    0.6090 H   0  0  0  0  0  0  0  0  0  0  0  0
    4.6101   18.8203    0.3255 H   0  0  0  0  0  0  0  0  0  0  0  0
    2.9382   18.2467    2.4794 H   0  0  0  0  0  0  0  0  0  0  0  0
    7.2707   19.0389    2.8506 H   0  0  0  0  0  0  0  0  0  0  0  0
    6.4389   18.1524    1.5281 H   0  0  0  0  0  0  0  0  0  0  0  0
    6.4644   19.9485    1.5281 H   0  0  0  0  0  0  0  0  0  0  0  0
    4.9434   19.6251    4.9991 H   0  0  0  0  0  0  0  0  0  0  0  0
    4.6045   17.8963    4.6483 H   0  0  0  0  0  0  0  0  0  0  0  0
    6.2971   18.4978    4.6483 H   0  0  0  0  0  0  0  0  0  0  0  0
    2.2755   17.5011    0.0220 H   0  0  0  0  0  0  0  0  0  0  0  0
    0.3371   17.6258    1.4583 H   0  0  0  0  0  0  0  0  0  0  0  0
   -0.5857   18.5600    0.2616 H   0  0  0  0  0  0  0  0  0  0  0  0
   -0.9413   15.7833    0.8343 H   0  0  0  0  0  0  0  0  0  0  0  0
   -1.5865   16.5880   -0.5944 H   0  0  0  0  0  0  0  0  0  0  0  0
    0.9914   15.1626    1.1447 H   0  0  0  0  0  0  0  0  0  0  0  0
    1.2595   13.8265   -0.0255 H   0  0  0  0  0  0  0  0  0  0  0  0
    2.3512   15.2530   -0.0255 H   0  0  0  0  0  0  0  0  0  0  0  0
   -0.9239   15.2434   -2.4977 H   0  0  0  0  0  0  0  0  0  0  0  0
   -1.4604   13.7877   -0.4398 H   0  0  0  0  0  0  0  0  0  0  0  0
   -1.7054   13.1486   -2.1488 H   0  0  0  0  0  0  0  0  0  0  0  0
   -0.6490   11.4683   -0.4161 H   0  0  0  0  0  0  0  0  0  0  0  0
    2.5341   13.4488   -1.9135 H   0  0  0  0  0  0  0  0  0  0  0  0
    1.6050   11.6356   -4.2250 H   0  0  0  0  0  0  0  0  0  0  0  0
    3.0002   12.8036   -4.2451 H   0  0  0  0  0  0  0  0  0  0  0  0
    3.7448   10.4598   -3.9722 H   0  0  0  0  0  0  0  0  0  0  0  0
    4.1549   11.5010   -2.5532 H   0  0  0  0  0  0  0  0  0  0  0  0
    3.3515    9.3859   -1.7511 H   0  0  0  0  0  0  0  0  0  0  0  0
    1.2670    8.6440   -2.3780 H   0  0  0  0  0  0  0  0  0  0  0  0
    2.6233   11.1381    1.0205 H   0  0  0  0  0  0  0  0  0  0  0  0
    3.9155   10.7801   -0.1747 H   0  0  0  0  0  0  0  0  0  0  0  0
    3.1122   12.3867   -0.1747 H   0  0  0  0  0  0  0  0  0  0  0  0
    1.2014    9.8733    0.8564 H   0  0  0  0  0  0  0  0  0  0  0  0
    0.0146    9.8076   -0.4905 H   0  0  0  0  0  0  0  0  0  0  0  0
    1.4350    8.7080   -0.4905 H   0  0  0  0  0  0  0  0  0  0  0  0
   -0.8593   13.1659   -3.9581 H   0  0  0  0  0  0  0  0  0  0  0  0
   -0.2081   14.5604   -4.8843 H   0  0  0  0  0  0  0  0  0  0  0  0
    0.6701   12.9935   -4.8843 H   0  0  0  0  0  0  0  0  0  0  0  0
    2.7268   14.8344   -3.9180 H   0  0  0  0  0  0  0  0  0  0  0  0
    1.2223   15.8688   -4.2366 H   0  0  0  0  0  0  0  0  0  0  0  0
    2.9569   15.8448   -1.7520 H   0  0  0  0  0  0  0  0  0  0  0  0
    2.7282   17.1733   -2.9562 H   0  0  0  0  0  0  0  0  0  0  0  0
   -0.6456   18.1676   -2.1028 H   0  0  0  0  0  0  0  0  0  0  0  0
    0.6941   18.2576   -3.2960 H   0  0  0  0  0  0  0  0  0  0  0  0
   -0.4152   16.8448   -3.2960 H   0  0  0  0  0  0  0  0  0  0  0  0
  1  2  1  0
  2  3  1  0
  3  4  1  0
  4  5  1  0
  5  6  1  0
  6  7  1  0
  7  8  1  0
  7  9  1  0
  2 10  1  0
 10 11  1  0
 11 12  1  0
 12 13  1  0
 13 14  1  1
 13 15  1  0
 15 16  1  0
 16 17  1  0
 17 18  2  0
 18 19  1  0
 19 20  1  0
 20 21  1  0
 21 22  1  0
 22 23  1  0
 22 24  1  0
 24 25  1  0
 24 26  1  0
 19 27  1  0
 27 28  1  6
 27 29  1  0
 29 30  1  0
 30 31  1  0
 31 32  1  6
  7  5  1  0
 31 10  1  0
 31 13  1  0
 27 15  1  0
 24 18  1  0
  1 33  1  0
  1 34  1  0
  1 35  1  0
  2 36  1  6
  3 37  1  0
  3 38  1  0
  4 39  1  0
  4 40  1  0
  5 41  1  1
  8 42  1  0
  8 43  1  0
  8 44  1  0
  9 45  1  0
  9 46  1  0
  9 47  1  0
 10 48  1  1
 11 49  1  0
 11 50  1  0
 12 51  1  0
 12 52  1  0
 14 53  1  0
 14 54  1  0
 14 55  1  0
 15 56  1  6
 16 57  1  0
 16 58  1  0
 17 59  1  0
 19 60  1  1
 20 61  1  0
 20 62  1  0
 21 63  1  0
 21 64  1  0
 22 65  1  1
 23 66  1  0
 25 67  1  0
 25 68  1  0
 25 69  1  0
 26 70  1  0
 26 71  1  0
 26 72  1  0
 28 73  1  0
 28 74  1  0
 28 75  1  0
 29 76  1  0
 29 77  1  0
 30 78  1  0
 30 79  1  0
 32 80  1  0
 32 81  1  0
 32 82  1  0
M  END
>  <meeko>  (4) 
{"is_sidechain": [false], "intermolecular_energy": 2.731, "internal_energy": -0.839}

$$$$
EPH_relaxed_0001_pdb2pqr_Repair_351_r2_0001_out
     RDKit          3D

 82 86  0  0  0  0  0  0  0  0999 V2000
    2.5120   19.7550   -0.7020 C   0  0  0  0  0  0  0  0  0  0  0  0
    2.5220   18.8400   -1.9300 C   0  0  2  0  0  0  0  0  0  0  0  0
    1.1720   18.8520   -2.6740 C   0  0  0  0  0  0  0  0  0  0  0  0
    0.1880   19.9000   -2.1470 C   0  0  0  0  0  0  0  0  0  0  0  0
   -1.0460   19.2660   -1.5810 C   0  0  2  0  0  0  0  0  0  0  0  0
   -2.0550   20.1920   -1.1580 O   0  0  0  0  0  0  0  0  0  0  0  0
   -1.4590   19.3900   -0.1260 C   0  0  0  0  0  0  0  0  0  0  0  0
   -0.6390   20.1700    0.8530 C   0  0  0  0  0  0  0  0  0  0  0  0
   -2.3820   18.3610    0.4470 C   0  0  0  0  0  0  0  0  0  0  0  0
    2.8760   17.4170   -1.5140 C   0  0  1  0  0  0  0  0  0  0  0  0
    3.6650   17.3630   -0.1790 C   0  0  0  0  0  0  0  0  0  0  0  0
    3.2120   16.0750    0.5570 C   0  0  0  0  0  0  0  0  0  0  0  0
    2.4380   15.2680   -0.5120 C   0  0  1  0  0  0  0  0  0  0  0  0
    3.5420   14.5510   -1.3510 C   0  0  0  0  0  0  0  0  0  0  0  0
    1.3730   14.2560    0.0240 C   0  0  2  0  0  0  0  0  0  0  0  0
    1.9340   13.1180    0.8950 C   0  0  0  0  0  0  0  0  0  0  0  0
    2.3250   11.8820    0.1550 C   0  0  0  0  0  0  0  0  0  0  0  0
    1.9700   11.5820   -1.1080 C   0  0  0  0  0  0  0  0  0  0  0  0
    1.0120   12.4870   -1.8940 C   0  0  1  0  0  0  0  0  0  0  0  0
   -0.0690   11.6170   -2.5880 C   0  0  0  0  0  0  0  0  0  0  0  0
    0.5350   10.5150   -3.4540 C   0  0  0  0  0  0  0  0  0  0  0  0
    1.4350    9.6020   -2.6250 C   0  0  2  0  0  0  0  0  0  0  0  0
    0.6260    8.8860   -1.6870 O   0  0  0  0  0  0  0  0  0  0  0  0
    2.5570   10.3690   -1.8710 C   0  0  0  0  0  0  0  0  0  0  0  0
    3.6030   10.8920   -2.8860 C   0  0  0  0  0  0  0  0  0  0  0  0
    3.3020    9.3520   -0.9640 C   0  0  0  0  0  0  0  0  0  0  0  0
    0.3880   13.7040   -1.0850 C   0  0  1  0  0  0  0  0  0  0  0  0
   -0.9040   13.2440   -0.3430 C   0  0  0  0  0  0  0  0  0  0  0  0
   -0.0570   14.8220   -2.1000 C   0  0  0  0  0  0  0  0  0  0  0  0
    1.0070   15.8620   -2.4990 C   0  0  0  0  0  0  0  0  0  0  0  0
    1.7020   16.4380   -1.2610 C   0  0  2  0  0  0  0  0  0  0  0  0
    0.6200   17.1840   -0.4080 C   0  0  0  0  0  0  0  0  0  0  0  0
    2.5187   19.1425    0.2117 H   0  0  0  0  0  0  0  0  0  0  0  0
    3.4032   20.3997   -0.7178 H   0  0  0  0  0  0  0  0  0  0  0  0
    1.6070   20.3800   -0.7178 H   0  0  0  0  0  0  0  0  0  0  0  0
    3.2838   19.2248   -2.6239 H   0  0  0  0  0  0  0  0  0  0  0  0
    1.3633   19.0590   -3.7373 H   0  0  0  0  0  0  0  0  0  0  0  0
    0.7085   17.8672   -2.5148 H   0  0  0  0  0  0  0  0  0  0  0  0
    0.6810   20.4872   -1.3582 H   0  0  0  0  0  0  0  0  0  0  0  0
   -0.1115   20.5428   -2.9879 H   0  0  0  0  0  0  0  0  0  0  0  0
   -0.9306   18.3956   -2.2436 H   0  0  0  0  0  0  0  0  0  0  0  0
   -0.9297   19.8935    1.8772 H   0  0  0  0  0  0  0  0  0  0  0  0
    0.4267   19.9442    0.7007 H   0  0  0  0  0  0  0  0  0  0  0  0
   -0.8113   21.2457    0.7007 H   0  0  0  0  0  0  0  0  0  0  0  0
   -2.3430   18.4045    1.5454 H   0  0  0  0  0  0  0  0  0  0  0  0
   -3.4093   18.5608    0.1084 H   0  0  0  0  0  0  0  0  0  0  0  0
   -2.0722   17.3613    0.1084 H   0  0  0  0  0  0  0  0  0  0  0  0
    3.4449   17.1016   -2.4011 H   0  0  0  0  0  0  0  0  0  0  0  0
    4.7459   17.3246   -0.3792 H   0  0  0  0  0  0  0  0  0  0  0  0
    3.4690   18.2565    0.4319 H   0  0  0  0  0  0  0  0  0  0  0  0
    4.0823   15.5072    0.9178 H   0  0  0  0  0  0  0  0  0  0  0  0
    2.5962   16.2942    1.4418 H   0  0  0  0  0  0  0  0  0  0  0  0
    4.2688   14.0790   -0.6735 H   0  0  0  0  0  0  0  0  0  0  0  0
    3.0784   13.7812   -1.9854 H   0  0  0  0  0  0  0  0  0  0  0  0
    4.0568   15.2876   -1.9854 H   0  0  0  0  0  0  0  0  0  0  0  0
    0.7729   14.8816    0.7012 H   0  0  0  0  0  0  0  0  0  0  0  0
    2.8245   13.4973    1.4175 H   0  0  0  0  0  0  0  0  0  0  0  0
    1.1186   12.8224    1.5716 H   0  0  0  0  0  0  0  0  0  0  0  0
    2.9565   11.1551    0.6868 H   0  0  0  0  0  0  0  0  0  0  0  0
    1.6262   12.9950   -2.6521 H   0  0  0  0  0  0  0  0  0  0  0  0
   -0.6983   11.1527   -1.8144 H   0  0  0  0  0  0  0  0  0  0  0  0
   -0.6560   12.2750   -3.2457 H   0  0  0  0  0  0  0  0  0  0  0  0
   -0.2768    9.9173   -3.8942 H   0  0  0  0  0  0  0  0  0  0  0  0
    1.1408   10.9818   -4.2446 H   0  0  0  0  0  0  0  0  0  0  0  0
    1.9388    8.9144   -3.3203 H   0  0  0  0  0  0  0  0  0  0  0  0
    1.0640    8.0360   -1.5100 H   0  0  0  0  0  0  0  0  0  0  0  0
    4.4587   11.3198   -2.3431 H   0  0  0  0  0  0  0  0  0  0  0  0
    3.9483   10.0605   -3.5180 H   0  0  0  0  0  0  0  0  0  0  0  0
    3.1450   11.6672   -3.5180 H   0  0  0  0  0  0  0  0  0  0  0  0
    3.1200    9.6005    0.0920 H   0  0  0  0  0  0  0  0  0  0  0  0
    2.9323    8.3368   -1.1708 H   0  0  0  0  0  0  0  0  0  0  0  0
    4.3814    9.3983   -1.1708 H   0  0  0  0  0  0  0  0  0  0  0  0
   -0.7429   13.3014    0.7436 H   0  0  0  0  0  0  0  0  0  0  0  0
   -1.7415   13.8992   -0.6246 H   0  0  0  0  0  0  0  0  0  0  0  0
   -1.1390   12.2070   -0.6246 H   0  0  0  0  0  0  0  0  0  0  0  0
   -0.3941   14.3213   -3.0196 H   0  0  0  0  0  0  0  0  0  0  0  0
   -0.8356   15.3943   -1.5743 H   0  0  0  0  0  0  0  0  0  0  0  0
    1.7582   15.3798   -3.1418 H   0  0  0  0  0  0  0  0  0  0  0  0
    0.5105   16.6833   -3.0365 H   0  0  0  0  0  0  0  0  0  0  0  0
    0.8316   17.0381    0.6615 H   0  0  0  0  0  0  0  0  0  0  0  0
    0.6442   18.2583   -0.6433 H   0  0  0  0  0  0  0  0  0  0  0  0
   -0.3754   16.7794   -0.6433 H   0  0  0  0  0  0  0  0  0  0  0  0
  1  2  1  0
  2  3  1  0
  3  4  1  0
  4  5  1  0
  5  6  1  0
  6  7  1  0
  7  8  1  0
  7  9  1  0
  2 10  1  0
 10 11  1  0
 11 12  1  0
 12 13  1  0
 13 14  1  6
 13 15  1  0
 15 16  1  0
 16 17  1  0
 17 18  2  0
 18 19  1  0
 19 20  1  0
 20 21  1  0
 21 22  1  0
 22 23  1  0
 22 24  1  0
 24 25  1  0
 24 26  1  0
 19 27  1  0
 27 28  1  1
 27 29  1  0
 29 30  1  0
 30 31  1  0
 31 32  1  1
  7  5  1  0
 31 10  1  0
 31 13  1  0
 27 15  1  0
 24 18  1  0
  1 33  1  0
  1 34  1  0
  1 35  1  0
  2 36  1  6
  3 37  1  0
  3 38  1  0
  4 39  1  0
  4 40  1  0
  5 41  1  6
  8 42  1  0
  8 43  1  0
  8 44  1  0
  9 45  1  0
  9 46  1  0
  9 47  1  0
 10 48  1  6
 11 49  1  0
 11 50  1  0
 12 51  1  0
 12 52  1  0
 14 53  1  0
 14 54  1  0
 14 55  1  0
 15 56  1  1
 16 57  1  0
 16 58  1  0
 17 59  1  0
 19 60  1  6
 20 61  1  0
 20 62  1  0
 21 63  1  0
 21 64  1  0
 22 65  1  6
 23 66  1  0
 25 67  1  0
 25 68  1  0
 25 69  1  0
 26 70  1  0
 26 71  1  0
 26 72  1  0
 28 73  1  0
 28 74  1  0
 28 75  1  0
 29 76  1  0
 29 77  1  0
 30 78  1  0
 30 79  1  0
 32 80  1  0
 32 81  1  0
 32 82  1  0
M  END
>  <meeko>  (5) 
{"is_sidechain": [false], "intermolecular_energy": 2.731, "internal_energy": -0.839}

$$$$
EPH_relaxed_0001_pdb2pqr_Repair_351_r2_0001_out
     RDKit          3D

 82 86  0  0  0  0  0  0  0  0999 V2000
    0.2450   17.6900   -2.5480 C   0  0  0  0  0  0  0  0  0  0  0  0
   -0.0080   16.8290   -1.3070 C   0  0  2  0  0  0  0  0  0  0  0  0
   -0.0080   17.6650   -0.0110 C   0  0  0  0  0  0  0  0  0  0  0  0
    0.5840   19.0660   -0.1830 C   0  0  0  0  0  0  0  0  0  0  0  0
    1.6850   19.3260    0.8010 C   0  0  2  0  0  0  0  0  0  0  0  0
    2.7220   20.1930    0.3220 O   0  0  0  0  0  0  0  0  0  0  0  0
    3.1100   18.8400    0.6100 C   0  0  0  0  0  0  0  0  0  0  0  0
    3.5100   18.0520   -0.5980 C   0  0  0  0  0  0  0  0  0  0  0  0
    3.9880   18.7070    1.8150 C   0  0  0  0  0  0  0  0  0  0  0  0
    1.0410   15.7270   -1.2160 C   0  0  1  0  0  0  0  0  0  0  0  0
    1.1530   15.1250    0.2100 C   0  0  0  0  0  0  0  0  0  0  0  0
    1.4690   13.6170    0.0350 C   0  0  0  0  0  0  0  0  0  0  0  0
    1.8550   13.4700   -1.4560 C   0  0  1  0  0  0  0  0  0  0  0  0
    3.3480   13.9210   -1.5300 C   0  0  0  0  0  0  0  0  0  0  0  0
    1.6480   12.0550   -2.0860 C   0  0  2  0  0  0  0  0  0  0  0  0
    2.4910   10.9310   -1.4580 C   0  0  0  0  0  0  0  0  0  0  0  0
    3.8260   10.7070   -2.0880 C   0  0  0  0  0  0  0  0  0  0  0  0
    4.2150   11.1810   -3.2860 C   0  0  0  0  0  0  0  0  0  0  0  0
    3.2370   11.9470   -4.1850 C   0  0  1  0  0  0  0  0  0  0  0  0
    3.3360   11.4080   -5.6370 C   0  0  0  0  0  0  0  0  0  0  0  0
    4.7640   11.4330   -6.1730 C   0  0  0  0  0  0  0  0  0  0  0  0
    5.6950   10.6120   -5.2850 C   0  0  2  0  0  0  0  0  0  0  0  0
    5.3250    9.2330   -5.3790 O   0  0  0  0  0  0  0  0  0  0  0  0
    5.6720   11.0580   -3.7960 C   0  0  0  0  0  0  0  0  0  0  0  0
    6.3540   12.4420   -3.6570 C   0  0  0  0  0  0  0  0  0  0  0  0
    6.5440   10.0610   -2.9850 C   0  0  0  0  0  0  0  0  0  0  0  0
    1.7370   12.0300   -3.6660 C   0  0  1  0  0  0  0  0  0  0  0  0
    0.9410   10.7740   -4.1370 C   0  0  0  0  0  0  0  0  0  0  0  0
    1.0330   13.2750   -4.3250 C   0  0  0  0  0  0  0  0  0  0  0  0
    1.1740   14.6220   -3.5910 C   0  0  0  0  0  0  0  0  0  0  0  0
    0.8340   14.4740   -2.1040 C   0  0  2  0  0  0  0  0  0  0  0  0
   -0.6680   14.0430   -1.9970 C   0  0  0  0  0  0  0  0  0  0  0  0
    0.5425   18.7024   -2.2374 H   0  0  0  0  0  0  0  0  0  0  0  0
    1.0488   17.2398   -3.1490 H   0  0  0  0  0  0  0  0  0  0  0  0
   -0.6746   17.7462   -3.1490 H   0  0  0  0  0  0  0  0  0  0  0  0
   -1.0077   16.3824   -1.4121 H   0  0  0  0  0  0  0  0  0  0  0  0
   -1.0467   17.7671    0.3365 H   0  0  0  0  0  0  0  0  0  0  0  0
    0.6267   17.1344    0.7140 H   0  0  0  0  0  0  0  0  0  0  0  0
    0.9868   19.1604   -1.2022 H   0  0  0  0  0  0  0  0  0  0  0  0
   -0.2153   19.8007   -0.0062 H   0  0  0  0  0  0  0  0  0  0  0  0
    0.9839   19.2422    1.6445 H   0  0  0  0  0  0  0  0  0  0  0  0
    3.9869   17.1126   -0.2816 H   0  0  0  0  0  0  0  0  0  0  0  0
    2.6177   17.8256   -1.2001 H   0  0  0  0  0  0  0  0  0  0  0  0
    4.2194   18.6387   -1.2001 H   0  0  0  0  0  0  0  0  0  0  0  0
    3.3776   18.7995    2.7254 H   0  0  0  0  0  0  0  0  0  0  0  0
    4.4813   17.7239    1.8025 H   0  0  0  0  0  0  0  0  0  0  0  0
    4.7503   19.4999    1.8025 H   0  0  0  0  0  0  0  0  0  0  0  0
    1.9261   16.2860   -1.5538 H   0  0  0  0  0  0  0  0  0  0  0  0
    1.9621   15.6194    0.7675 H   0  0  0  0  0  0  0  0  0  0  0  0
    0.2202   15.2703    0.7746 H   0  0  0  0  0  0  0  0  0  0  0  0
    2.3051   13.3175    0.6840 H   0  0  0  0  0  0  0  0  0  0  0  0
    0.6175   12.9775    0.3106 H   0  0  0  0  0  0  0  0  0  0  0  0
    3.7457   14.0411   -0.5115 H   0  0  0  0  0  0  0  0  0  0  0  0
    3.9348   13.1600   -2.0653 H   0  0  0  0  0  0  0  0  0  0  0  0
    3.4154   14.8796   -2.0653 H   0  0  0  0  0  0  0  0  0  0  0  0
    0.6046   11.8292   -1.8210 H   0  0  0  0  0  0  0  0  0  0  0  0
    2.6524   11.1787   -0.3985 H   0  0  0  0  0  0  0  0  0  0  0  0
    1.9223   10.0020   -1.6116 H   0  0  0  0  0  0  0  0  0  0  0  0
    4.5533   10.1034   -1.5252 H   0  0  0  0  0  0  0  0  0  0  0  0
    3.5576   12.9988   -4.1548 H   0  0  0  0  0  0  0  0  0  0  0  0
    2.9709   10.3705   -5.6539 H   0  0  0  0  0  0  0  0  0  0  0  0
    2.7266   12.0615   -6.2785 H   0  0  0  0  0  0  0  0  0  0  0  0
    4.7741   11.0136   -7.1899 H   0  0  0  0  0  0  0  0  0  0  0  0
    5.1169   12.4748   -6.1828 H   0  0  0  0  0  0  0  0  0  0  0  0
    6.7216   10.7734   -5.6456 H   0  0  0  0  0  0  0  0  0  0  0  0
    5.6350    8.7890   -4.5720 H   0  0  0  0  0  0  0  0  0  0  0  0
    6.4743   12.6861   -2.5912 H   0  0  0  0  0  0  0  0  0  0  0  0
    7.3416   12.4143   -4.1406 H   0  0  0  0  0  0  0  0  0  0  0  0
    5.7303   13.2083   -4.1406 H   0  0  0  0  0  0  0  0  0  0  0  0
    6.3933   10.2333   -1.9091 H   0  0  0  0  0  0  0  0  0  0  0  0
    6.2521    9.0305   -3.2358 H   0  0  0  0  0  0  0  0  0  0  0  0
    7.6042   10.2131   -3.2358 H   0  0  0  0  0  0  0  0  0  0  0  0
    0.5862   10.2142   -3.2590 H   0  0  0  0  0  0  0  0  0  0  0  0
    0.0791   11.0918   -4.7421 H   0  0  0  0  0  0  0  0  0  0  0  0
    1.5963   10.1302   -4.7421 H   0  0  0  0  0  0  0  0  0  0  0  0
    1.4539   13.4000   -5.3336 H   0  0  0  0  0  0  0  0  0  0  0  0
   -0.0423   13.0445   -4.2994 H   0  0  0  0  0  0  0  0  0  0  0  0
    2.2098   14.9789   -3.6896 H   0  0  0  0  0  0  0  0  0  0  0  0
    0.4745   15.3418   -4.0410 H   0  0  0  0  0  0  0  0  0  0  0  0
   -0.9515   13.9616   -0.9373 H   0  0  0  0  0  0  0  0  0  0  0  0
   -1.3014   14.7956   -2.4893 H   0  0  0  0  0  0  0  0  0  0  0  0
   -0.8059   13.0690   -2.4893 H   0  0  0  0  0  0  0  0  0  0  0  0
  1  2  1  0
  2  3  1  0
  3  4  1  0
  4  5  1  0
  5  6  1  0
  6  7  1  0
  7  8  1  0
  7  9  1  0
  2 10  1  0
 10 11  1  0
 11 12  1  0
 12 13  1  0
 13 14  1  1
 13 15  1  0
 15 16  1  0
 16 17  1  0
 17 18  2  0
 18 19  1  0
 19 20  1  0
 20 21  1  0
 21 22  1  0
 22 23  1  0
 22 24  1  0
 24 25  1  0
 24 26  1  0
 19 27  1  0
 27 28  1  6
 27 29  1  0
 29 30  1  0
 30 31  1  0
 31 32  1  6
  7  5  1  0
 31 10  1  0
 31 13  1  0
 27 15  1  0
 24 18  1  0
  1 33  1  0
  1 34  1  0
  1 35  1  0
  2 36  1  6
  3 37  1  0
  3 38  1  0
  4 39  1  0
  4 40  1  0
  5 41  1  1
  8 42  1  0
  8 43  1  0
  8 44  1  0
  9 45  1  0
  9 46  1  0
  9 47  1  0
 10 48  1  6
 11 49  1  0
 11 50  1  0
 12 51  1  0
 12 52  1  0
 14 53  1  0
 14 54  1  0
 14 55  1  0
 15 56  1  6
 16 57  1  0
 16 58  1  0
 17 59  1  0
 19 60  1  6
 20 61  1  0
 20 62  1  0
 21 63  1  0
 21 64  1  0
 22 65  1  6
 23 66  1  0
 25 67  1  0
 25 68  1  0
 25 69  1  0
 26 70  1  0
 26 71  1  0
 26 72  1  0
 28 73  1  0
 28 74  1  0
 28 75  1  0
 29 76  1  0
 29 77  1  0
 30 78  1  0
 30 79  1  0
 32 80  1  0
 32 81  1  0
 32 82  1  0
M  END
>  <meeko>  (6) 
{"is_sidechain": [false], "intermolecular_energy": 2.731, "internal_energy": -0.839}

$$$$
EPH_relaxed_0001_pdb2pqr_Repair_351_r2_0001_out
     RDKit          3D

 82 86  0  0  0  0  0  0  0  0999 V2000
    0.8180   19.7790   -1.2850 C   0  0  0  0  0  0  0  0  0  0  0  0
    0.9170   18.5290   -0.4060 C   0  0  2  0  0  0  0  0  0  0  0  0
    2.3150   18.3710    0.2240 C   0  0  0  0  0  0  0  0  0  0  0  0
    2.7130   19.5330    1.1380 C   0  0  0  0  0  0  0  0  0  0  0  0
    4.1460   19.4350    1.5670 C   0  0  2  0  0  0  0  0  0  0  0  0
    4.4140   18.4030    2.5260 O   0  0  0  0  0  0  0  0  0  0  0  0
    4.6220   19.7530    2.9720 C   0  0  0  0  0  0  0  0  0  0  0  0
    3.6680   20.1940    4.0380 C   0  0  0  0  0  0  0  0  0  0  0  0
    6.0620   20.1060    3.1780 C   0  0  0  0  0  0  0  0  0  0  0  0
    0.5720   17.2900   -1.2250 C   0  0  1  0  0  0  0  0  0  0  0  0
    0.3540   17.6090   -2.7280 C   0  0  0  0  0  0  0  0  0  0  0  0
    0.8860   16.3910   -3.5260 C   0  0  0  0  0  0  0  0  0  0  0  0
    1.0830   15.2850   -2.4630 C   0  0  1  0  0  0  0  0  0  0  0  0
   -0.3390   14.6800   -2.2450 C   0  0  0  0  0  0  0  0  0  0  0  0
    2.1340   14.1790   -2.8040 C   0  0  2  0  0  0  0  0  0  0  0  0
    1.8100   13.3300   -4.0450 C   0  0  0  0  0  0  0  0  0  0  0  0
    1.0120   12.0960   -3.7840 C   0  0  0  0  0  0  0  0  0  0  0  0
    0.8150   11.5330   -2.5770 C   0  0  0  0  0  0  0  0  0  0  0  0
    1.5070   12.0900   -1.3260 C   0  0  1  0  0  0  0  0  0  0  0  0
    2.1190   10.9220   -0.5100 C   0  0  0  0  0  0  0  0  0  0  0  0
    1.0960    9.8400   -0.1780 C   0  0  0  0  0  0  0  0  0  0  0  0
    0.4730    9.2700   -1.4500 C   0  0  2  0  0  0  0  0  0  0  0  0
    1.4810    8.5650   -2.1810 O   0  0  0  0  0  0  0  0  0  0  0  0
   -0.1680   10.3560   -2.3580 C   0  0  0  0  0  0  0  0  0  0  0  0
   -1.4470   10.9110   -1.6830 C   0  0  0  0  0  0  0  0  0  0  0  0
   -0.6320    9.6690   -3.6700 C   0  0  0  0  0  0  0  0  0  0  0  0
    2.5410   13.2710   -1.5730 C   0  0  1  0  0  0  0  0  0  0  0  0
    3.9490   12.6850   -1.8990 C   0  0  0  0  0  0  0  0  0  0  0  0
    2.7020   14.1000   -0.2450 C   0  0  0  0  0  0  0  0  0  0  0  0
    1.7080   15.2560   -0.0220 C   0  0  0  0  0  0  0  0  0  0  0  0
    1.6180   16.1490   -1.2630 C   0  0  2  0  0  0  0  0  0  0  0  0
    3.0300   16.7880   -1.4950 C   0  0  0  0  0  0  0  0  0  0  0  0
    0.7473   20.6717   -0.6463 H   0  0  0  0  0  0  0  0  0  0  0  0
    1.7131   19.8525   -1.9201 H   0  0  0  0  0  0  0  0  0  0  0  0
   -0.0775   19.7107   -1.9201 H   0  0  0  0  0  0  0  0  0  0  0  0
    0.1958   18.6447    0.4165 H   0  0  0  0  0  0  0  0  0  0  0  0
    2.3264   17.4439    0.8159 H   0  0  0  0  0  0  0  0  0  0  0  0
    3.0398   18.3498   -0.6031 H   0  0  0  0  0  0  0  0  0  0  0  0
    2.5670   20.4790    0.5961 H   0  0  0  0  0  0  0  0  0  0  0  0
    2.0820   19.4930    2.0381 H   0  0  0  0  0  0  0  0  0  0  0  0
    4.4902   19.7711    0.5778 H   0  0  0  0  0  0  0  0  0  0  0  0
    4.1047   19.9921    5.0272 H   0  0  0  0  0  0  0  0  0  0  0  0
    3.4760   21.2722    3.9350 H   0  0  0  0  0  0  0  0  0  0  0  0
    2.7223   19.6417    3.9350 H   0  0  0  0  0  0  0  0  0  0  0  0
    6.2761   20.1585    4.2557 H   0  0  0  0  0  0  0  0  0  0  0  0
    6.6979   19.3371    2.7148 H   0  0  0  0  0  0  0  0  0  0  0  0
    6.2702   21.0818    2.7148 H   0  0  0  0  0  0  0  0  0  0  0  0
   -0.3276   16.9577   -0.6863 H   0  0  0  0  0  0  0  0  0  0  0  0
   -0.7167   17.7572   -2.9323 H   0  0  0  0  0  0  0  0  0  0  0  0
    0.8809   18.5305   -3.0164 H   0  0  0  0  0  0  0  0  0  0  0  0
    0.1553   16.0746   -4.2849 H   0  0  0  0  0  0  0  0  0  0  0  0
    1.8159   16.6203   -4.0671 H   0  0  0  0  0  0  0  0  0  0  0  0
   -0.5398   14.5946   -1.1669 H   0  0  0  0  0  0  0  0  0  0  0  0
   -1.0914   15.3360   -2.7072 H   0  0  0  0  0  0  0  0  0  0  0  0
   -0.3881   13.6830   -2.7072 H   0  0  0  0  0  0  0  0  0  0  0  0
    3.0211   14.7718   -3.0719 H   0  0  0  0  0  0  0  0  0  0  0  0
    1.2436   13.9584   -4.7480 H   0  0  0  0  0  0  0  0  0  0  0  0
    2.7779   12.9879   -4.4402 H   0  0  0  0  0  0  0  0  0  0  0  0
    0.5455   11.6052   -4.6509 H   0  0  0  0  0  0  0  0  0  0  0  0
    0.7199   12.5839   -0.7373 H   0  0  0  0  0  0  0  0  0  0  0  0
    2.9321   10.4700   -1.0970 H   0  0  0  0  0  0  0  0  0  0  0  0
    2.4869   11.3360    0.4404 H   0  0  0  0  0  0  0  0  0  0  0  0
    1.5953    9.0293    0.3729 H   0  0  0  0  0  0  0  0  0  0  0  0
    0.2985   10.2865    0.4341 H   0  0  0  0  0  0  0  0  0  0  0  0
   -0.3411    8.5960   -1.1452 H   0  0  0  0  0  0  0  0  0  0  0  0
    1.6420    9.0540   -3.0060 H   0  0  0  0  0  0  0  0  0  0  0  0
   -1.3352   10.8625   -0.5898 H   0  0  0  0  0  0  0  0  0  0  0  0
   -1.5995   11.9562   -1.9899 H   0  0  0  0  0  0  0  0  0  0  0  0
   -2.3146   10.3084   -1.9899 H   0  0  0  0  0  0  0  0  0  0  0  0
   -1.2323    8.7801   -3.4260 H   0  0  0  0  0  0  0  0  0  0  0  0
   -1.2406   10.3727   -4.2570 H   0  0  0  0  0  0  0  0  0  0  0  0
    0.2480    9.3673   -4.2570 H   0  0  0  0  0  0  0  0  0  0  0  0
    4.4802   12.4639   -0.9615 H   0  0  0  0  0  0  0  0  0  0  0  0
    3.8349   11.7597   -2.4827 H   0  0  0  0  0  0  0  0  0  0  0  0
    4.5251   13.4181   -2.4827 H   0  0  0  0  0  0  0  0  0  0  0  0
    2.5947   13.4017    0.5981 H   0  0  0  0  0  0  0  0  0  0  0  0
    3.6885   14.5802   -0.3237 H   0  0  0  0  0  0  0  0  0  0  0  0
    0.7134   14.8387    0.1939 H   0  0  0  0  0  0  0  0  0  0  0  0
    2.0620   15.8647    0.8231 H   0  0  0  0  0  0  0  0  0  0  0  0
    3.5002   17.0008   -0.5236 H   0  0  0  0  0  0  0  0  0  0  0  0
    3.6607   16.0876   -2.0621 H   0  0  0  0  0  0  0  0  0  0  0  0
    2.9201   17.7241   -2.0621 H   0  0  0  0  0  0  0  0  0  0  0  0
  1  2  1  0
  2  3  1  0
  3  4  1  0
  4  5  1  0
  5  6  1  0
  6  7  1  0
  7  8  1  0
  7  9  1  0
  2 10  1  0
 10 11  1  0
 11 12  1  0
 12 13  1  0
 13 14  1  1
 13 15  1  0
 15 16  1  0
 16 17  1  0
 17 18  2  0
 18 19  1  0
 19 20  1  0
 20 21  1  0
 21 22  1  0
 22 23  1  0
 22 24  1  0
 24 25  1  0
 24 26  1  0
 19 27  1  0
 27 28  1  6
 27 29  1  0
 29 30  1  0
 30 31  1  0
 31 32  1  6
  7  5  1  0
 31 10  1  0
 31 13  1  0
 27 15  1  0
 24 18  1  0
  1 33  1  0
  1 34  1  0
  1 35  1  0
  2 36  1  1
  3 37  1  0
  3 38  1  0
  4 39  1  0
  4 40  1  0
  5 41  1  6
  8 42  1  0
  8 43  1  0
  8 44  1  0
  9 45  1  0
  9 46  1  0
  9 47  1  0
 10 48  1  1
 11 49  1  0
 11 50  1  0
 12 51  1  0
 12 52  1  0
 14 53  1  0
 14 54  1  0
 14 55  1  0
 15 56  1  6
 16 57  1  0
 16 58  1  0
 17 59  1  0
 19 60  1  1
 20 61  1  0
 20 62  1  0
 21 63  1  0
 21 64  1  0
 22 65  1  1
 23 66  1  0
 25 67  1  0
 25 68  1  0
 25 69  1  0
 26 70  1  0
 26 71  1  0
 26 72  1  0
 28 73  1  0
 28 74  1  0
 28 75  1  0
 29 76  1  0
 29 77  1  0
 30 78  1  0
 30 79  1  0
 32 80  1  0
 32 81  1  0
 32 82  1  0
M  END
>  <meeko>  (7) 
{"is_sidechain": [false], "intermolecular_energy": 2.731, "internal_energy": -0.839}

$$$$
EPH_relaxed_0001_pdb2pqr_Repair_351_r2_0001_out
     RDKit          3D

 82 86  0  0  0  0  0  0  0  0999 V2000
   -5.0450    8.3940   -0.4460 C   0  0  0  0  0  0  0  0  0  0  0  0
   -5.3690    7.3520   -1.5200 C   0  0  2  0  0  0  0  0  0  0  0  0
   -4.3540    7.3800   -2.6810 C   0  0  0  0  0  0  0  0  0  0  0  0
   -2.9090    7.1340   -2.2420 C   0  0  0  0  0  0  0  0  0  0  0  0
   -1.9930    8.2250   -2.7080 C   0  0  2  0  0  0  0  0  0  0  0  0
   -0.6260    7.8280   -2.8790 O   0  0  0  0  0  0  0  0  0  0  0  0
   -0.8800    8.8040   -1.8560 C   0  0  0  0  0  0  0  0  0  0  0  0
   -0.6230    8.3100   -0.4660 C   0  0  0  0  0  0  0  0  0  0  0  0
   -0.3630   10.1700   -2.1850 C   0  0  0  0  0  0  0  0  0  0  0  0
   -6.7780    7.5770   -2.0550 C   0  0  1  0  0  0  0  0  0  0  0  0
   -7.0130    6.8910   -3.4270 C   0  0  0  0  0  0  0  0  0  0  0  0
   -8.4880    6.4120   -3.4410 C   0  0  0  0  0  0  0  0  0  0  0  0
   -9.1400    7.1210   -2.2310 C   0  0  1  0  0  0  0  0  0  0  0  0
   -9.4700    8.5590   -2.7400 C   0  0  0  0  0  0  0  0  0  0  0  0
  -10.3960    6.4230   -1.6160 C   0  0  2  0  0  0  0  0  0  0  0  0
  -11.6030    6.3000   -2.5620 C   0  0  0  0  0  0  0  0  0  0  0  0
  -12.5650    7.4410   -2.5210 C   0  0  0  0  0  0  0  0  0  0  0  0
  -12.6210    8.3820   -1.5600 C   0  0  0  0  0  0  0  0  0  0  0  0
  -11.7180    8.3000   -0.3230 C   0  0  1  0  0  0  0  0  0  0  0  0
  -12.5610    8.5650    0.9520 C   0  0  0  0  0  0  0  0  0  0  0  0
  -13.3330    9.8790    0.8800 C   0  0  0  0  0  0  0  0  0  0  0  0
  -14.2620    9.9000   -0.3310 C   0  0  2  0  0  0  0  0  0  0  0  0
  -15.2870    8.9200   -0.1420 O   0  0  0  0  0  0  0  0  0  0  0  0
  -13.5260    9.6340   -1.6730 C   0  0  0  0  0  0  0  0  0  0  0  0
  -12.6320   10.8490   -2.0270 C   0  0  0  0  0  0  0  0  0  0  0  0
  -14.5950    9.5410   -2.7950 C   0  0  0  0  0  0  0  0  0  0  0  0
  -10.8250    6.9900   -0.2020 C   0  0  1  0  0  0  0  0  0  0  0  0
  -11.6330    5.8590    0.5050 C   0  0  0  0  0  0  0  0  0  0  0  0
   -9.5870    7.2950    0.7210 C   0  0  0  0  0  0  0  0  0  0  0  0
   -8.3340    7.8720    0.0350 C   0  0  0  0  0  0  0  0  0  0  0  0
   -7.9560    7.0470   -1.1990 C   0  0  2  0  0  0  0  0  0  0  0  0
   -7.5970    5.6010   -0.7160 C   0  0  0  0  0  0  0  0  0  0  0  0
   -5.1834    7.9489    0.5503 H   0  0  0  0  0  0  0  0  0  0  0  0
   -4.0018    8.7242   -0.5584 H   0  0  0  0  0  0  0  0  0  0  0  0
   -5.7170    9.2576   -0.5584 H   0  0  0  0  0  0  0  0  0  0  0  0
   -5.3046    6.3602   -1.0485 H   0  0  0  0  0  0  0  0  0  0  0  0
   -4.6340    6.6012   -3.4057 H   0  0  0  0  0  0  0  0  0  0  0  0
   -4.3902    8.3902   -3.1148 H   0  0  0  0  0  0  0  0  0  0  0  0
   -2.8740    7.0844   -1.1437 H   0  0  0  0  0  0  0  0  0  0  0  0
   -2.5712    6.1884   -2.6911 H   0  0  0  0  0  0  0  0  0  0  0  0
   -2.8072    8.6963   -3.2780 H   0  0  0  0  0  0  0  0  0  0  0  0
   -1.0044    9.0431    0.2600 H   0  0  0  0  0  0  0  0  0  0  0  0
   -1.1347    7.3475   -0.3185 H   0  0  0  0  0  0  0  0  0  0  0  0
    0.4589    8.1765   -0.3185 H   0  0  0  0  0  0  0  0  0  0  0  0
   -0.1557   10.7177   -1.2538 H   0  0  0  0  0  0  0  0  0  0  0  0
    0.5633   10.0801   -2.7714 H   0  0  0  0  0  0  0  0  0  0  0  0
   -1.1167   10.7159   -2.7714 H   0  0  0  0  0  0  0  0  0  0  0  0
   -6.7934    8.6767   -2.0779 H   0  0  0  0  0  0  0  0  0  0  0  0
   -6.8397    7.6076   -4.2434 H   0  0  0  0  0  0  0  0  0  0  0  0
   -6.3223    6.0469   -3.5700 H   0  0  0  0  0  0  0  0  0  0  0  0
   -8.9834    6.7077   -4.3775 H   0  0  0  0  0  0  0  0  0  0  0  0
   -8.5716    5.3170   -3.3776 H   0  0  0  0  0  0  0  0  0  0  0  0
   -9.6232    9.2265   -1.8792 H   0  0  0  0  0  0  0  0  0  0  0  0
   -8.6343    8.9329   -3.3498 H   0  0  0  0  0  0  0  0  0  0  0  0
  -10.3851    8.5311   -3.3498 H   0  0  0  0  0  0  0  0  0  0  0  0
  -10.0388    5.3955   -1.4530 H   0  0  0  0  0  0  0  0  0  0  0  0
  -11.2215    6.2140   -3.5901 H   0  0  0  0  0  0  0  0  0  0  0  0
  -12.1648    5.4164   -2.2248 H   0  0  0  0  0  0  0  0  0  0  0  0
  -13.2890    7.5193   -3.3455 H   0  0  0  0  0  0  0  0  0  0  0  0
  -10.9643    9.0921   -0.4438 H   0  0  0  0  0  0  0  0  0  0  0  0
  -13.2786    7.7408    1.0779 H   0  0  0  0  0  0  0  0  0  0  0  0
  -11.8674    8.6313    1.8032 H   0  0  0  0  0  0  0  0  0  0  0  0
  -13.9319    9.9953    1.7953 H   0  0  0  0  0  0  0  0  0  0  0  0
  -12.6126   10.7048    0.7843 H   0  0  0  0  0  0  0  0  0  0  0  0
  -14.6876   10.9118   -0.4027 H   0  0  0  0  0  0  0  0  0  0  0  0
  -15.7900    8.8560   -0.9720 H   0  0  0  0  0  0  0  0  0  0  0  0
  -12.2800   11.3274   -1.1011 H   0  0  0  0  0  0  0  0  0  0  0  0
  -11.7672   10.5088   -2.6156 H   0  0  0  0  0  0  0  0  0  0  0  0
  -13.2141   11.5734   -2.6156 H   0  0  0  0  0  0  0  0  0  0  0  0
  -15.5942    9.4541   -2.3432 H   0  0  0  0  0  0  0  0  0  0  0  0
  -14.5520   10.4463   -3.4184 H   0  0  0  0  0  0  0  0  0  0  0  0
  -14.3963    8.6568   -3.4184 H   0  0  0  0  0  0  0  0  0  0  0  0
  -11.5497    5.9757    1.5956 H   0  0  0  0  0  0  0  0  0  0  0  0
  -12.6905    5.9239    0.2090 H   0  0  0  0  0  0  0  0  0  0  0  0
  -11.2288    4.8797    0.2090 H   0  0  0  0  0  0  0  0  0  0  0  0
   -9.9111    8.0178    1.4842 H   0  0  0  0  0  0  0  0  0  0  0  0
   -9.2743    6.3169    1.1154 H   0  0  0  0  0  0  0  0  0  0  0  0
   -8.5374    8.9081   -0.2733 H   0  0  0  0  0  0  0  0  0  0  0  0
   -7.4973    7.8399    0.7483 H   0  0  0  0  0  0  0  0  0  0  0  0
   -7.5900    5.5729    0.3836 H   0  0  0  0  0  0  0  0  0  0  0  0
   -8.3461    4.8909   -1.0962 H   0  0  0  0  0  0  0  0  0  0  0  0
   -6.6027    5.3237   -1.0962 H   0  0  0  0  0  0  0  0  0  0  0  0
  1  2  1  0
  2  3  1  0
  3  4  1  0
  4  5  1  0
  5  6  1  0
  6  7  1  0
  7  8  1  0
  7  9  1  0
  2 10  1  0
 10 11  1  0
 11 12  1  0
 12 13  1  0
 13 14  1  6
 13 15  1  0
 15 16  1  0
 16 17  1  0
 17 18  2  0
 18 19  1  0
 19 20  1  0
 20 21  1  0
 21 22  1  0
 22 23  1  0
 22 24  1  0
 24 25  1  0
 24 26  1  0
 19 27  1  0
 27 28  1  1
 27 29  1  0
 29 30  1  0
 30 31  1  0
 31 32  1  1
  7  5  1  0
 31 10  1  0
 31 13  1  0
 27 15  1  0
 24 18  1  0
  1 33  1  0
  1 34  1  0
  1 35  1  0
  2 36  1  1
  3 37  1  0
  3 38  1  0
  4 39  1  0
  4 40  1  0
  5 41  1  6
  8 42  1  0
  8 43  1  0
  8 44  1  0
  9 45  1  0
  9 46  1  0
  9 47  1  0
 10 48  1  6
 11 49  1  0
 11 50  1  0
 12 51  1  0
 12 52  1  0
 14 53  1  0
 14 54  1  0
 14 55  1  0
 15 56  1  1
 16 57  1  0
 16 58  1  0
 17 59  1  0
 19 60  1  6
 20 61  1  0
 20 62  1  0
 21 63  1  0
 21 64  1  0
 22 65  1  6
 23 66  1  0
 25 67  1  0
 25 68  1  0
 25 69  1  0
 26 70  1  0
 26 71  1  0
 26 72  1  0
 28 73  1  0
 28 74  1  0
 28 75  1  0
 29 76  1  0
 29 77  1  0
 30 78  1  0
 30 79  1  0
 32 80  1  0
 32 81  1  0
 32 82  1  0
M  END
>  <meeko>  (8) 
{"is_sidechain": [false], "intermolecular_energy": 2.731, "internal_energy": -0.839}

$$$$
EPH_relaxed_0001_pdb2pqr_Repair_351_r2_0001_out
     RDKit          3D

 82 86  0  0  0  0  0  0  0  0999 V2000
    0.1610    9.4150   -2.5240 C   0  0  0  0  0  0  0  0  0  0  0  0
    1.2530   10.4200   -2.9030 C   0  0  2  0  0  0  0  0  0  0  0  0
    2.6520    9.7740   -2.9310 C   0  0  0  0  0  0  0  0  0  0  0  0
    3.6160   10.4360   -3.9200 C   0  0  0  0  0  0  0  0  0  0  0  0
    4.9920   10.5780   -3.3420 C   0  0  2  0  0  0  0  0  0  0  0  0
    5.5960   11.8620   -3.5460 O   0  0  0  0  0  0  0  0  0  0  0  0
    6.2400   10.7490   -4.1870 C   0  0  0  0  0  0  0  0  0  0  0  0
    6.1720   10.7850   -5.6820 C   0  0  0  0  0  0  0  0  0  0  0  0
    7.5640   10.3910   -3.5870 C   0  0  0  0  0  0  0  0  0  0  0  0
    1.2400   11.5920   -1.9290 C   0  0  1  0  0  0  0  0  0  0  0  0
    2.3020   11.4480   -0.8060 C   0  0  0  0  0  0  0  0  0  0  0  0
    2.8140   12.8760   -0.4880 C   0  0  0  0  0  0  0  0  0  0  0  0
    1.8060   13.8170   -1.1890 C   0  0  1  0  0  0  0  0  0  0  0  0
    0.5900   13.8990   -0.2150 C   0  0  0  0  0  0  0  0  0  0  0  0
    2.3370   15.2370   -1.5710 C   0  0  2  0  0  0  0  0  0  0  0  0
    2.7700   16.1130   -0.3830 C   0  0  0  0  0  0  0  0  0  0  0  0
    1.6980   16.9770    0.1960 C   0  0  0  0  0  0  0  0  0  0  0  0
    0.5210   17.2620   -0.3920 C   0  0  0  0  0  0  0  0  0  0  0  0
    0.2110   16.7740   -1.8120 C   0  0  1  0  0  0  0  0  0  0  0  0
   -0.3850   17.9410   -2.6420 C   0  0  0  0  0  0  0  0  0  0  0  0
   -1.5950   18.5800   -1.9680 C   0  0  0  0  0  0  0  0  0  0  0  0
   -1.2320   19.1060   -0.5810 C   0  0  2  0  0  0  0  0  0  0  0  0
   -0.3150   20.1940   -0.7260 O   0  0  0  0  0  0  0  0  0  0  0  0
   -0.6130   18.0200    0.3420 C   0  0  0  0  0  0  0  0  0  0  0  0
   -1.7020   16.9950    0.7440 C   0  0  0  0  0  0  0  0  0  0  0  0
   -0.1620   18.7120    1.6570 C   0  0  0  0  0  0  0  0  0  0  0  0
    1.3980   16.0330   -2.5660 C   0  0  1  0  0  0  0  0  0  0  0  0
    2.3020   17.0780   -3.2910 C   0  0  0  0  0  0  0  0  0  0  0  0
    0.7970   15.1100   -3.6900 C   0  0  0  0  0  0  0  0  0  0  0  0
    0.4030   13.6790   -3.2770 C   0  0  0  0  0  0  0  0  0  0  0  0
    1.5370   12.9990   -2.5050 C   0  0  2  0  0  0  0  0  0  0  0  0
    2.7680   12.8820   -3.4670 C   0  0  0  0  0  0  0  0  0  0  0  0
    0.0884    9.3482   -1.4284 H   0  0  0  0  0  0  0  0  0  0  0  0
   -0.8030    9.7484   -2.9357 H   0  0  0  0  0  0  0  0  0  0  0  0
    0.4134    8.4267   -2.9357 H   0  0  0  0  0  0  0  0  0  0  0  0
    1.0349   10.7786   -3.9198 H   0  0  0  0  0  0  0  0  0  0  0  0
    3.0868    9.8433   -1.9230 H   0  0  0  0  0  0  0  0  0  0  0  0
    2.5188    8.7328   -3.2599 H   0  0  0  0  0  0  0  0  0  0  0  0
    3.6731    9.8195   -4.8292 H   0  0  0  0  0  0  0  0  0  0  0  0
    3.2348   11.4420   -4.1494 H   0  0  0  0  0  0  0  0  0  0  0  0
    4.7454    9.8875   -2.5220 H   0  0  0  0  0  0  0  0  0  0  0  0
    5.2400   11.2784   -5.9949 H   0  0  0  0  0  0  0  0  0  0  0  0
    7.0333   11.3453   -6.0748 H   0  0  0  0  0  0  0  0  0  0  0  0
    6.1928    9.7577   -6.0748 H   0  0  0  0  0  0  0  0  0  0  0  0
    7.4870   10.4118   -2.4899 H   0  0  0  0  0  0  0  0  0  0  0  0
    7.8545    9.3821   -3.9151 H   0  0  0  0  0  0  0  0  0  0  0  0
    8.3233   11.1161   -3.9151 H   0  0  0  0  0  0  0  0  0  0  0  0
    0.1952   11.5371   -1.5893 H   0  0  0  0  0  0  0  0  0  0  0  0
    1.8473   11.0005    0.0901 H   0  0  0  0  0  0  0  0  0  0  0  0
    3.1275   10.7946   -1.1249 H   0  0  0  0  0  0  0  0  0  0  0  0
    2.8206   13.0534    0.5976 H   0  0  0  0  0  0  0  0  0  0  0  0
    3.8454   13.0363   -0.8352 H   0  0  0  0  0  0  0  0  0  0  0  0
    0.9502   13.8747    0.8241 H   0  0  0  0  0  0  0  0  0  0  0  0
    0.0416   14.8362   -0.3912 H   0  0  0  0  0  0  0  0  0  0  0  0
   -0.0792   13.0439   -0.3912 H   0  0  0  0  0  0  0  0  0  0  0  0
    3.2606   15.0043   -2.1212 H   0  0  0  0  0  0  0  0  0  0  0  0
    3.1382   15.4488    0.4128 H   0  0  0  0  0  0  0  0  0  0  0  0
    3.5362   16.7989   -0.7736 H   0  0  0  0  0  0  0  0  0  0  0  0
    1.8861   17.4175    1.1862 H   0  0  0  0  0  0  0  0  0  0  0  0
   -0.5362   15.9743   -1.7018 H   0  0  0  0  0  0  0  0  0  0  0  0
    0.3902   18.7096   -2.7769 H   0  0  0  0  0  0  0  0  0  0  0  0
   -0.7186   17.5289   -3.6058 H   0  0  0  0  0  0  0  0  0  0  0  0
   -1.9529   19.4154   -2.5876 H   0  0  0  0  0  0  0  0  0  0  0  0
   -2.3804   17.8175   -1.8601 H   0  0  0  0  0  0  0  0  0  0  0  0
   -2.1640   19.4345   -0.0979 H   0  0  0  0  0  0  0  0  0  0  0  0
   -0.8030   20.9400   -1.1160 H   0  0  0  0  0  0  0  0  0  0  0  0
   -1.7638   16.9368    1.8407 H   0  0  0  0  0  0  0  0  0  0  0  0
   -2.6734   17.3141    0.3384 H   0  0  0  0  0  0  0  0  0  0  0  0
   -1.4423   16.0060    0.3384 H   0  0  0  0  0  0  0  0  0  0  0  0
   -0.5350   18.1396    2.5191 H   0  0  0  0  0  0  0  0  0  0  0  0
    0.9367   18.7529    1.6917 H   0  0  0  0  0  0  0  0  0  0  0  0
   -0.5682   19.7337    1.6917 H   0  0  0  0  0  0  0  0  0  0  0  0
    2.8297   17.6880   -2.5430 H   0  0  0  0  0  0  0  0  0  0  0  0
    3.0361   16.5537   -3.9205 H   0  0  0  0  0  0  0  0  0  0  0  0
    1.6775   17.7289   -3.9205 H   0  0  0  0  0  0  0  0  0  0  0  0
   -0.1053   15.6043   -4.0793 H   0  0  0  0  0  0  0  0  0  0  0  0
    1.6072   14.9850   -4.4235 H   0  0  0  0  0  0  0  0  0  0  0  0
   -0.4915   13.7223   -2.6383 H   0  0  0  0  0  0  0  0  0  0  0  0
    0.1990   13.0952   -4.1867 H   0  0  0  0  0  0  0  0  0  0  0  0
    3.6901   12.7944   -2.8736 H   0  0  0  0  0  0  0  0  0  0  0  0
    2.6541   11.9906   -4.1014 H   0  0  0  0  0  0  0  0  0  0  0  0
    2.8241   13.7789   -4.1014 H   0  0  0  0  0  0  0  0  0  0  0  0
  1  2  1  0
  2  3  1  0
  3  4  1  0
  4  5  1  0
  5  6  1  0
  6  7  1  0
  7  8  1  0
  7  9  1  0
  2 10  1  0
 10 11  1  0
 11 12  1  0
 12 13  1  0
 13 14  1  1
 13 15  1  0
 15 16  1  0
 16 17  1  0
 17 18  2  0
 18 19  1  0
 19 20  1  0
 20 21  1  0
 21 22  1  0
 22 23  1  0
 22 24  1  0
 24 25  1  0
 24 26  1  0
 19 27  1  0
 27 28  1  6
 27 29  1  0
 29 30  1  0
 30 31  1  0
 31 32  1  6
  7  5  1  0
 31 10  1  0
 31 13  1  0
 27 15  1  0
 24 18  1  0
  1 33  1  0
  1 34  1  0
  1 35  1  0
  2 36  1  6
  3 37  1  0
  3 38  1  0
  4 39  1  0
  4 40  1  0
  5 41  1  1
  8 42  1  0
  8 43  1  0
  8 44  1  0
  9 45  1  0
  9 46  1  0
  9 47  1  0
 10 48  1  1
 11 49  1  0
 11 50  1  0
 12 51  1  0
 12 52  1  0
 14 53  1  0
 14 54  1  0
 14 55  1  0
 15 56  1  6
 16 57  1  0
 16 58  1  0
 17 59  1  0
 19 60  1  1
 20 61  1  0
 20 62  1  0
 21 63  1  0
 21 64  1  0
 22 65  1  1
 23 66  1  0
 25 67  1  0
 25 68  1  0
 25 69  1  0
 26 70  1  0
 26 71  1  0
 26 72  1  0
 28 73  1  0
 28 74  1  0
 28 75  1  0
 29 76  1  0
 29 77  1  0
 30 78  1  0
 30 79  1  0
 32 80  1  0
 32 81  1  0
 32 82  1  0
M  END
>  <meeko>  (9) 
{"is_sidechain": [false], "intermolecular_energy": 2.731, "internal_energy": -0.839}

$$$$
EPH_relaxed_0001_pdb2pqr_Repair_351_r2_0001_out
     RDKit          3D

 82 86  0  0  0  0  0  0  0  0999 V2000
    0.3930   10.3760   -3.7660 C   0  0  0  0  0  0  0  0  0  0  0  0
    0.0570   10.1190   -2.2940 C   0  0  2  0  0  0  0  0  0  0  0  0
   -1.4040    9.6660   -2.1030 C   0  0  0  0  0  0  0  0  0  0  0  0
   -1.5420    8.2180   -1.6240 C   0  0  0  0  0  0  0  0  0  0  0  0
   -2.3460    7.3910   -2.5810 C   0  0  2  0  0  0  0  0  0  0  0  0
   -3.3560    8.1160   -3.2950 O   0  0  0  0  0  0  0  0  0  0  0  0
   -3.8220    7.0960   -2.3960 C   0  0  0  0  0  0  0  0  0  0  0  0
   -4.5820    7.6240   -1.2190 C   0  0  0  0  0  0  0  0  0  0  0  0
   -4.4060    5.9040   -3.0870 C   0  0  0  0  0  0  0  0  0  0  0  0
    0.3250   11.3750   -1.4730 C   0  0  1  0  0  0  0  0  0  0  0  0
    1.3970   11.1510   -0.3730 C   0  0  0  0  0  0  0  0  0  0  0  0
    2.1930   12.4750   -0.2490 C   0  0  0  0  0  0  0  0  0  0  0  0
    1.3530   13.5110   -1.0320 C   0  0  1  0  0  0  0  0  0  0  0  0
    0.2290   13.9480   -0.0400 C   0  0  0  0  0  0  0  0  0  0  0  0
    2.1300   14.7420   -1.6020 C   0  0  2  0  0  0  0  0  0  0  0  0
    2.7880   15.6460   -0.5450 C   0  0  0  0  0  0  0  0  0  0  0  0
    1.9380   16.7680   -0.0470 C   0  0  0  0  0  0  0  0  0  0  0  0
    0.8100   17.2130   -0.6310 C   0  0  0  0  0  0  0  0  0  0  0  0
    0.3350   16.6360   -1.9700 C   0  0  1  0  0  0  0  0  0  0  0  0
   -0.0650   17.7940   -2.9210 C   0  0  0  0  0  0  0  0  0  0  0  0
   -1.0890   18.7370   -2.2960 C   0  0  0  0  0  0  0  0  0  0  0  0
   -0.5580   19.3350   -0.9970 C   0  0  2  0  0  0  0  0  0  0  0  0
    0.5450   20.1940   -1.3020 O   0  0  0  0  0  0  0  0  0  0  0  0
   -0.1140   18.2620    0.0360 C   0  0  0  0  0  0  0  0  0  0  0  0
   -1.3600   17.5290    0.5930 C   0  0  0  0  0  0  0  0  0  0  0  0
    0.5320   18.9970    1.2420 C   0  0  0  0  0  0  0  0  0  0  0  0
    1.3140   15.5900   -2.6600 C   0  0  1  0  0  0  0  0  0  0  0  0
    2.3640   16.3410   -3.5350 C   0  0  0  0  0  0  0  0  0  0  0  0
    0.4850   14.6820   -3.6440 C   0  0  0  0  0  0  0  0  0  0  0  0
   -0.1590   13.4170   -3.0450 C   0  0  0  0  0  0  0  0  0  0  0  0
    0.8600   12.6170   -2.2280 C   0  0  2  0  0  0  0  0  0  0  0  0
    1.9920   12.1460   -3.2030 C   0  0  0  0  0  0  0  0  0  0  0  0
    1.2651   11.0431   -3.8320 H   0  0  0  0  0  0  0  0  0  0  0  0
    0.6232    9.4214   -4.2616 H   0  0  0  0  0  0  0  0  0  0  0  0
   -0.4681   10.8481   -4.2616 H   0  0  0  0  0  0  0  0  0  0  0  0
    0.7044    9.3013   -1.9442 H   0  0  0  0  0  0  0  0  0  0  0  0
   -1.8773   10.3243   -1.3596 H   0  0  0  0  0  0  0  0  0  0  0  0
   -1.8907    9.7266   -3.0876 H   0  0  0  0  0  0  0  0  0  0  0  0
   -0.5387    7.7773   -1.5280 H   0  0  0  0  0  0  0  0  0  0  0  0
   -2.0639    8.2257   -0.6557 H   0  0  0  0  0  0  0  0  0  0  0  0
   -1.4830    6.7385   -2.7795 H   0  0  0  0  0  0  0  0  0  0  0  0
   -4.0986    7.2881   -0.2898 H   0  0  0  0  0  0  0  0  0  0  0  0
   -4.5905    8.7235   -1.2513 H   0  0  0  0  0  0  0  0  0  0  0  0
   -5.6153    7.2483   -1.2513 H   0  0  0  0  0  0  0  0  0  0  0  0
   -4.7598    5.1819   -2.3364 H   0  0  0  0  0  0  0  0  0  0  0  0
   -5.2503    6.2221   -3.7163 H   0  0  0  0  0  0  0  0  0  0  0  0
   -3.6372    5.4318   -3.7163 H   0  0  0  0  0  0  0  0  0  0  0  0
   -0.6904   11.5714   -1.0983 H   0  0  0  0  0  0  0  0  0  0  0  0
    0.9126   10.9090    0.5845 H   0  0  0  0  0  0  0  0  0  0  0  0
    2.0611   10.3135   -0.6331 H   0  0  0  0  0  0  0  0  0  0  0  0
    2.2907   12.7719    0.8057 H   0  0  0  0  0  0  0  0  0  0  0  0
    3.2161   12.3847   -0.6428 H   0  0  0  0  0  0  0  0  0  0  0  0
    0.5791   13.8119    0.9939 H   0  0  0  0  0  0  0  0  0  0  0  0
   -0.0165   15.0071   -0.2075 H   0  0  0  0  0  0  0  0  0  0  0  0
   -0.6674   13.3329   -0.2075 H   0  0  0  0  0  0  0  0  0  0  0  0
    2.9595   14.2656   -2.1451 H   0  0  0  0  0  0  0  0  0  0  0  0
    3.0614   15.0186    0.3162 H   0  0  0  0  0  0  0  0  0  0  0  0
    3.6511   16.1148   -1.0403 H   0  0  0  0  0  0  0  0  0  0  0  0
    2.2610   17.2736    0.8750 H   0  0  0  0  0  0  0  0  0  0  0  0
   -0.5476   16.0210   -1.7401 H   0  0  0  0  0  0  0  0  0  0  0  0
    0.8372   18.3705   -3.1736 H   0  0  0  0  0  0  0  0  0  0  0  0
   -0.5241   17.3480   -3.8156 H   0  0  0  0  0  0  0  0  0  0  0  0
   -1.3083   19.5503   -3.0035 H   0  0  0  0  0  0  0  0  0  0  0  0
   -2.0018   18.1654   -2.0720 H   0  0  0  0  0  0  0  0  0  0  0  0
   -1.3820   19.8958   -0.5317 H   0  0  0  0  0  0  0  0  0  0  0  0
    0.2170   20.9000   -1.8840 H   0  0  0  0  0  0  0  0  0  0  0  0
   -1.3335   17.5446    1.6926 H   0  0  0  0  0  0  0  0  0  0  0  0
   -2.2710   18.0351    0.2410 H   0  0  0  0  0  0  0  0  0  0  0  0
   -1.3602   16.4869    0.2410 H   0  0  0  0  0  0  0  0  0  0  0  0
    0.1529   18.5656    2.1802 H   0  0  0  0  0  0  0  0  0  0  0  0
    1.6250   18.8801    1.2000 H   0  0  0  0  0  0  0  0  0  0  0  0
    0.2757   20.0659    1.2000 H   0  0  0  0  0  0  0  0  0  0  0  0
    3.0841   16.8561   -2.8822 H   0  0  0  0  0  0  0  0  0  0  0  0
    2.8967   15.6178   -4.1700 H   0  0  0  0  0  0  0  0  0  0  0  0
    1.8517   17.0788   -4.1700 H   0  0  0  0  0  0  0  0  0  0  0  0
   -0.3223   15.2988   -4.0657 H   0  0  0  0  0  0  0  0  0  0  0  0
    1.2150   14.3130   -4.3795 H   0  0  0  0  0  0  0  0  0  0  0  0
   -0.9922   13.7129   -2.3906 H   0  0  0  0  0  0  0  0  0  0  0  0
   -0.5219   12.7847   -3.8687 H   0  0  0  0  0  0  0  0  0  0  0  0
    2.8529   11.7878   -2.6195 H   0  0  0  0  0  0  0  0  0  0  0  0
    1.6140   11.3305   -3.8371 H   0  0  0  0  0  0  0  0  0  0  0  0
    2.3040   12.9890   -3.8371 H   0  0  0  0  0  0  0  0  0  0  0  0
  1  2  1  0
  2  3  1  0
  3  4  1  0
  4  5  1  0
  5  6  1  0
  6  7  1  0
  7  8  1  0
  7  9  1  0
  2 10  1  0
 10 11  1  0
 11 12  1  0
 12 13  1  0
 13 14  1  1
 13 15  1  0
 15 16  1  0
 16 17  1  0
 17 18  2  0
 18 19  1  0
 19 20  1  0
 20 21  1  0
 21 22  1  0
 22 23  1  0
 22 24  1  0
 24 25  1  0
 24 26  1  0
 19 27  1  0
 27 28  1  6
 27 29  1  0
 29 30  1  0
 30 31  1  0
 31 32  1  6
  7  5  1  0
 31 10  1  0
 31 13  1  0
 27 15  1  0
 24 18  1  0
  1 33  1  0
  1 34  1  0
  1 35  1  0
  2 36  1  1
  3 37  1  0
  3 38  1  0
  4 39  1  0
  4 40  1  0
  5 41  1  6
  8 42  1  0
  8 43  1  0
  8 44  1  0
  9 45  1  0
  9 46  1  0
  9 47  1  0
 10 48  1  1
 11 49  1  0
 11 50  1  0
 12 51  1  0
 12 52  1  0
 14 53  1  0
 14 54  1  0
 14 55  1  0
 15 56  1  6
 16 57  1  0
 16 58  1  0
 17 59  1  0
 19 60  1  1
 20 61  1  0
 20 62  1  0
 21 63  1  0
 21 64  1  0
 22 65  1  1
 23 66  1  0
 25 67  1  0
 25 68  1  0
 25 69  1  0
 26 70  1  0
 26 71  1  0
 26 72  1  0
 28 73  1  0
 28 74  1  0
 28 75  1  0
 29 76  1  0
 29 77  1  0
 30 78  1  0
 30 79  1  0
 32 80  1  0
 32 81  1  0
 32 82  1  0
M  END
>  <meeko>  (10) 
{"is_sidechain": [false], "intermolecular_energy": 2.731, "internal_energy": -0.839}

$$$$
EPH_relaxed_0001_pdb2pqr_Repair_351_r2_0001_out
     RDKit          3D

 82 86  0  0  0  0  0  0  0  0999 V2000
    2.2080   17.7570   -2.5540 C   0  0  0  0  0  0  0  0  0  0  0  0
    0.8800   17.3220   -1.9280 C   0  0  2  0  0  0  0  0  0  0  0  0
    0.9380   17.3170   -0.3880 C   0  0  0  0  0  0  0  0  0  0  0  0
    0.7720   18.7030    0.2400 C   0  0  0  0  0  0  0  0  0  0  0  0
   -0.6480   18.9630    0.6430 C   0  0  2  0  0  0  0  0  0  0  0  0
   -1.6150   18.1180    0.0060 O   0  0  0  0  0  0  0  0  0  0  0  0
   -1.6970   19.5190   -0.3020 C   0  0  0  0  0  0  0  0  0  0  0  0
   -1.3700   19.8490   -1.7240 C   0  0  0  0  0  0  0  0  0  0  0  0
   -2.8990   20.1940    0.2820 C   0  0  0  0  0  0  0  0  0  0  0  0
    0.4920   15.9400   -2.4400 C   0  0  1  0  0  0  0  0  0  0  0  0
    0.4800   15.8580   -3.9900 C   0  0  0  0  0  0  0  0  0  0  0  0
    0.9580   14.4330   -4.3670 C   0  0  0  0  0  0  0  0  0  0  0  0
    0.9110   13.6420   -3.0380 C   0  0  1  0  0  0  0  0  0  0  0  0
   -0.5860   13.2310   -2.8690 C   0  0  0  0  0  0  0  0  0  0  0  0
    1.8630   12.4060   -2.9360 C   0  0  2  0  0  0  0  0  0  0  0  0
    1.5870   11.2830   -3.9500 C   0  0  0  0  0  0  0  0  0  0  0  0
    0.6320   10.2310   -3.4910 C   0  0  0  0  0  0  0  0  0  0  0  0
    0.2400   10.0310   -2.2190 C   0  0  0  0  0  0  0  0  0  0  0  0
    0.8460   10.8480   -1.0710 C   0  0  1  0  0  0  0  0  0  0  0  0
    1.2290    9.8990    0.0950 C   0  0  0  0  0  0  0  0  0  0  0  0
    0.0610    9.0300    0.5500 C   0  0  0  0  0  0  0  0  0  0  0  0
   -0.4760    8.1890   -0.6050 C   0  0  2  0  0  0  0  0  0  0  0  0
    0.5220    7.2370   -0.9850 O   0  0  0  0  0  0  0  0  0  0  0  0
   -0.8860    9.0370   -1.8410 C   0  0  0  0  0  0  0  0  0  0  0  0
   -2.1620    9.8510   -1.5140 C   0  0  0  0  0  0  0  0  0  0  0  0
   -1.2760    8.0600   -2.9830 C   0  0  0  0  0  0  0  0  0  0  0  0
    2.0270   11.8340   -1.4690 C   0  0  1  0  0  0  0  0  0  0  0  0
    3.3880   11.0740   -1.4370 C   0  0  0  0  0  0  0  0  0  0  0  0
    2.1300   12.9750   -0.3900 C   0  0  0  0  0  0  0  0  0  0  0  0
    1.2530   14.2220   -0.6100 C   0  0  0  0  0  0  0  0  0  0  0  0
    1.4020   14.7520   -2.0400 C   0  0  2  0  0  0  0  0  0  0  0  0
    2.8930   15.1940   -2.2330 C   0  0  0  0  0  0  0  0  0  0  0  0
    2.9289   17.9931   -1.7574 H   0  0  0  0  0  0  0  0  0  0  0  0
    2.6041   16.9417   -3.1771 H   0  0  0  0  0  0  0  0  0  0  0  0
    2.0450   18.6487   -3.1771 H   0  0  0  0  0  0  0  0  0  0  0  0
    0.1172   18.0562   -2.2265 H   0  0  0  0  0  0  0  0  0  0  0  0
    0.1336   16.6673   -0.0126 H   0  0  0  0  0  0  0  0  0  0  0  0
    1.9375   16.9546   -0.1058 H   0  0  0  0  0  0  0  0  0  0  0  0
    1.4133   18.7696    1.1312 H   0  0  0  0  0  0  0  0  0  0  0  0
    1.0588   19.4554   -0.5094 H   0  0  0  0  0  0  0  0  0  0  0  0
   -0.3317   19.2628    1.6530 H   0  0  0  0  0  0  0  0  0  0  0  0
   -0.5960   20.6301   -1.7505 H   0  0  0  0  0  0  0  0  0  0  0  0
   -0.9988   18.9476   -2.2336 H   0  0  0  0  0  0  0  0  0  0  0  0
   -2.2748   20.2119   -2.2336 H   0  0  0  0  0  0  0  0  0  0  0  0
   -2.8406   20.1612    1.3800 H   0  0  0  0  0  0  0  0  0  0  0  0
   -2.9300   21.2415   -0.0524 H   0  0  0  0  0  0  0  0  0  0  0  0
   -3.8095   19.6752   -0.0524 H   0  0  0  0  0  0  0  0  0  0  0  0
   -0.4935   15.8372   -1.9623 H   0  0  0  0  0  0  0  0  0  0  0  0
   -0.5379   16.0289   -4.3703 H   0  0  0  0  0  0  0  0  0  0  0  0
    1.1355   16.6235   -4.4307 H   0  0  0  0  0  0  0  0  0  0  0  0
    0.2855   13.9820   -5.1115 H   0  0  0  0  0  0  0  0  0  0  0  0
    1.9620   14.4347   -4.8165 H   0  0  0  0  0  0  0  0  0  0  0  0
   -0.8293   13.1642   -1.7983 H   0  0  0  0  0  0  0  0  0  0  0  0
   -1.2294   13.9857   -3.3448 H   0  0  0  0  0  0  0  0  0  0  0  0
   -0.7538   12.2535   -3.3448 H   0  0  0  0  0  0  0  0  0  0  0  0
    2.8352   12.8332   -3.2230 H   0  0  0  0  0  0  0  0  0  0  0  0
    1.1757   11.7413   -4.8615 H   0  0  0  0  0  0  0  0  0  0  0  0
    2.5486   10.7731   -4.1092 H   0  0  0  0  0  0  0  0  0  0  0  0
    0.2132    9.5625   -4.2576 H   0  0  0  0  0  0  0  0  0  0  0  0
    0.0579   11.5420   -0.7434 H   0  0  0  0  0  0  0  0  0  0  0  0
    2.0472    9.2436   -0.2381 H   0  0  0  0  0  0  0  0  0  0  0  0
    1.5322   10.5238    0.9480 H   0  0  0  0  0  0  0  0  0  0  0  0
    0.4018    8.3613    1.3541 H   0  0  0  0  0  0  0  0  0  0  0  0
   -0.7449    9.6861    0.9108 H   0  0  0  0  0  0  0  0  0  0  0  0
   -1.3891    7.6878   -0.2514 H   0  0  0  0  0  0  0  0  0  0  0  0
    0.0770    6.3840   -1.1250 H   0  0  0  0  0  0  0  0  0  0  0  0
   -2.2795    9.9260   -0.4229 H   0  0  0  0  0  0  0  0  0  0  0  0
   -2.0734   10.8598   -1.9434 H   0  0  0  0  0  0  0  0  0  0  0  0
   -3.0395    9.3455   -1.9434 H   0  0  0  0  0  0  0  0  0  0  0  0
   -1.6509    7.1209   -2.5500 H   0  0  0  0  0  0  0  0  0  0  0  0
   -2.0608    8.5165   -3.6040 H   0  0  0  0  0  0  0  0  0  0  0  0
   -0.3926    7.8505   -3.6040 H   0  0  0  0  0  0  0  0  0  0  0  0
    3.6895   10.9057   -0.3926 H   0  0  0  0  0  0  0  0  0  0  0  0
    3.2795   10.1059   -1.9479 H   0  0  0  0  0  0  0  0  0  0  0  0
    4.1553   11.6742   -1.9479 H   0  0  0  0  0  0  0  0  0  0  0  0
    1.8520   12.5401    0.5814 H   0  0  0  0  0  0  0  0  0  0  0  0
    3.1665   13.3379   -0.4538 H   0  0  0  0  0  0  0  0  0  0  0  0
    0.2002   13.9574   -0.4322 H   0  0  0  0  0  0  0  0  0  0  0  0
    1.5765   15.0063    0.0902 H   0  0  0  0  0  0  0  0  0  0  0  0
    3.3643   15.3337   -1.2490 H   0  0  0  0  0  0  0  0  0  0  0  0
    3.4359   14.4182   -2.7928 H   0  0  0  0  0  0  0  0  0  0  0  0
    2.9254   16.1404   -2.7928 H   0  0  0  0  0  0  0  0  0  0  0  0
  1  2  1  0
  2  3  1  0
  3  4  1  0
  4  5  1  0
  5  6  1  0
  6  7  1  0
  7  8  1  0
  7  9  1  0
  2 10  1  0
 10 11  1  0
 11 12  1  0
 12 13  1  0
 13 14  1  1
 13 15  1  0
 15 16  1  0
 16 17  1  0
 17 18  2  0
 18 19  1  0
 19 20  1  0
 20 21  1  0
 21 22  1  0
 22 23  1  0
 22 24  1  0
 24 25  1  0
 24 26  1  0
 19 27  1  0
 27 28  1  6
 27 29  1  0
 29 30  1  0
 30 31  1  0
 31 32  1  6
  7  5  1  0
 31 10  1  0
 31 13  1  0
 27 15  1  0
 24 18  1  0
  1 33  1  0
  1 34  1  0
  1 35  1  0
  2 36  1  1
  3 37  1  0
  3 38  1  0
  4 39  1  0
  4 40  1  0
  5 41  1  1
  8 42  1  0
  8 43  1  0
  8 44  1  0
  9 45  1  0
  9 46  1  0
  9 47  1  0
 10 48  1  1
 11 49  1  0
 11 50  1  0
 12 51  1  0
 12 52  1  0
 14 53  1  0
 14 54  1  0
 14 55  1  0
 15 56  1  6
 16 57  1  0
 16 58  1  0
 17 59  1  0
 19 60  1  1
 20 61  1  0
 20 62  1  0
 21 63  1  0
 21 64  1  0
 22 65  1  1
 23 66  1  0
 25 67  1  0
 25 68  1  0
 25 69  1  0
 26 70  1  0
 26 71  1  0
 26 72  1  0
 28 73  1  0
 28 74  1  0
 28 75  1  0
 29 76  1  0
 29 77  1  0
 30 78  1  0
 30 79  1  0
 32 80  1  0
 32 81  1  0
 32 82  1  0
M  END
>  <meeko>  (11) 
{"is_sidechain": [false], "intermolecular_energy": 2.731, "internal_energy": -0.839}

$$$$
EPH_relaxed_0001_pdb2pqr_Repair_351_r2_0001_out
     RDKit          3D

 82 86  0  0  0  0  0  0  0  0999 V2000
   -1.0670   20.0140   -1.9840 C   0  0  0  0  0  0  0  0  0  0  0  0
   -0.2900   19.2630   -0.8990 C   0  0  2  0  0  0  0  0  0  0  0  0
    0.6520   20.1950   -0.1100 C   0  0  0  0  0  0  0  0  0  0  0  0
    1.1550   19.5910    1.2040 C   0  0  0  0  0  0  0  0  0  0  0  0
    2.4800   20.1650    1.6060 C   0  0  2  0  0  0  0  0  0  0  0  0
    3.4620   20.1940    0.5620 O   0  0  0  0  0  0  0  0  0  0  0  0
    3.7570   19.3490    1.6860 C   0  0  0  0  0  0  0  0  0  0  0  0
    3.7700   17.8880    1.3610 C   0  0  0  0  0  0  0  0  0  0  0  0
    4.8760   19.8520    2.5420 C   0  0  0  0  0  0  0  0  0  0  0  0
    0.5060   18.1240   -1.5230 C   0  0  1  0  0  0  0  0  0  0  0  0
    1.9890   18.5020   -1.7810 C   0  0  0  0  0  0  0  0  0  0  0  0
    2.8270   17.2200   -1.5410 C   0  0  0  0  0  0  0  0  0  0  0  0
    1.7840   16.0790   -1.4790 C   0  0  1  0  0  0  0  0  0  0  0  0
    1.4680   15.7440   -2.9700 C   0  0  0  0  0  0  0  0  0  0  0  0
    2.2020   14.8040   -0.6770 C   0  0  2  0  0  0  0  0  0  0  0  0
    3.4210   14.0510   -1.2380 C   0  0  0  0  0  0  0  0  0  0  0  0
    3.1080   12.9810   -2.2310 C   0  0  0  0  0  0  0  0  0  0  0  0
    1.8920   12.4440   -2.4450 C   0  0  0  0  0  0  0  0  0  0  0  0
    0.6910   12.8430   -1.5780 C   0  0  1  0  0  0  0  0  0  0  0  0
   -0.0750   11.5680   -1.1370 C   0  0  0  0  0  0  0  0  0  0  0  0
   -0.4750   10.6880   -2.3180 C   0  0  0  0  0  0  0  0  0  0  0  0
    0.7520   10.2650   -3.1220 C   0  0  2  0  0  0  0  0  0  0  0  0
    1.5550    9.3980   -2.3150 O   0  0  0  0  0  0  0  0  0  0  0  0
    1.6090   11.4660   -3.6110 C   0  0  0  0  0  0  0  0  0  0  0  0
    0.8430   12.2350   -4.7160 C   0  0  0  0  0  0  0  0  0  0  0  0
    2.8870   10.8970   -4.2850 C   0  0  0  0  0  0  0  0  0  0  0  0
    1.0070   13.8160   -0.3620 C   0  0  1  0  0  0  0  0  0  0  0  0
    1.4340   12.9860    0.8870 C   0  0  0  0  0  0  0  0  0  0  0  0
   -0.3100   14.5790    0.0410 C   0  0  0  0  0  0  0  0  0  0  0  0
   -0.6060   15.8950   -0.7040 C   0  0  0  0  0  0  0  0  0  0  0  0
    0.6230   16.8090   -0.7110 C   0  0  2  0  0  0  0  0  0  0  0  0
    0.9510   17.1810    0.7750 C   0  0  0  0  0  0  0  0  0  0  0  0
   -1.7814   20.7045   -1.5119 H   0  0  0  0  0  0  0  0  0  0  0  0
   -0.3647   20.5843   -2.6097 H   0  0  0  0  0  0  0  0  0  0  0  0
   -1.6131   19.2927   -2.6097 H   0  0  0  0  0  0  0  0  0  0  0  0
   -1.0239   18.8562   -0.1878 H   0  0  0  0  0  0  0  0  0  0  0  0
    1.5223   20.4255   -0.7421 H   0  0  0  0  0  0  0  0  0  0  0  0
    0.0728   21.0934    0.1496 H   0  0  0  0  0  0  0  0  0  0  0  0
    0.4210   19.7994    1.9963 H   0  0  0  0  0  0  0  0  0  0  0  0
    1.2803   18.5079    1.0581 H   0  0  0  0  0  0  0  0  0  0  0  0
    1.9939   20.8462    2.3200 H   0  0  0  0  0  0  0  0  0  0  0  0
    3.7752   17.3049    2.2937 H   0  0  0  0  0  0  0  0  0  0  0  0
    2.8741   17.6347    0.7752 H   0  0  0  0  0  0  0  0  0  0  0  0
    4.6703   17.6507    0.7752 H   0  0  0  0  0  0  0  0  0  0  0  0
    4.6090   19.7320    3.6023 H   0  0  0  0  0  0  0  0  0  0  0  0
    5.7891   19.2777    2.3265 H   0  0  0  0  0  0  0  0  0  0  0  0
    5.0527   20.9161    2.3265 H   0  0  0  0  0  0  0  0  0  0  0  0
   -0.0944   17.9553   -2.4291 H   0  0  0  0  0  0  0  0  0  0  0  0
    2.1165   18.8492   -2.8170 H   0  0  0  0  0  0  0  0  0  0  0  0
    2.3109   19.3144   -1.1129 H   0  0  0  0  0  0  0  0  0  0  0  0
    3.5328   17.0566   -2.3688 H   0  0  0  0  0  0  0  0  0  0  0  0
    3.4325   17.2824   -0.6248 H   0  0  0  0  0  0  0  0  0  0  0  0
    0.7138   14.9445   -3.0143 H   0  0  0  0  0  0  0  0  0  0  0  0
    1.0804   16.6420   -3.4734 H   0  0  0  0  0  0  0  0  0  0  0  0
    2.3871   15.4094   -3.4734 H   0  0  0  0  0  0  0  0  0  0  0  0
    2.5286   15.2266    0.2846 H   0  0  0  0  0  0  0  0  0  0  0  0
    4.0792   14.7852   -1.7256 H   0  0  0  0  0  0  0  0  0  0  0  0
    3.8864   13.5434   -0.3802 H   0  0  0  0  0  0  0  0  0  0  0  0
    3.9412   12.5991   -2.8392 H   0  0  0  0  0  0  0  0  0  0  0  0
    0.0463   13.4635   -2.2178 H   0  0  0  0  0  0  0  0  0  0  0  0
    0.5703   10.9838   -0.4645 H   0  0  0  0  0  0  0  0  0  0  0  0
   -0.9981   11.8905   -0.6331 H   0  0  0  0  0  0  0  0  0  0  0  0
   -0.9859    9.7897   -1.9411 H   0  0  0  0  0  0  0  0  0  0  0  0
   -1.1442   11.2635   -2.9745 H   0  0  0  0  0  0  0  0  0  0  0  0
    0.3928    9.7488   -4.0245 H   0  0  0  0  0  0  0  0  0  0  0  0
    1.9830    9.9430   -1.6330 H   0  0  0  0  0  0  0  0  0  0  0  0
    0.1395   12.9412   -4.2508 H   0  0  0  0  0  0  0  0  0  0  0  0
    1.5591   12.7888   -5.3410 H   0  0  0  0  0  0  0  0  0  0  0  0
    0.2864   11.5211   -5.3410 H   0  0  0  0  0  0  0  0  0  0  0  0
    3.6000   10.5796   -3.5098 H   0  0  0  0  0  0  0  0  0  0  0  0
    2.6179   10.0337   -4.9113 H   0  0  0  0  0  0  0  0  0  0  0  0
    3.3485   11.6747   -4.9113 H   0  0  0  0  0  0  0  0  0  0  0  0
    1.1544   13.5295    1.8015 H   0  0  0  0  0  0  0  0  0  0  0  0
    0.9258   12.0106    0.8703 H   0  0  0  0  0  0  0  0  0  0  0  0
    2.5231   12.8323    0.8703 H   0  0  0  0  0  0  0  0  0  0  0  0
   -1.1561   13.8988   -0.1360 H   0  0  0  0  0  0  0  0  0  0  0  0
   -0.1643   14.8696    1.0919 H   0  0  0  0  0  0  0  0  0  0  0  0
   -0.8895   15.6652   -1.7417 H   0  0  0  0  0  0  0  0  0  0  0  0
   -1.4264   16.4141   -0.1868 H   0  0  0  0  0  0  0  0  0  0  0  0
    0.3772   16.5302    1.4511 H   0  0  0  0  0  0  0  0  0  0  0  0
    2.0267   17.0430    0.9586 H   0  0  0  0  0  0  0  0  0  0  0  0
    0.6794   18.2310    0.9586 H   0  0  0  0  0  0  0  0  0  0  0  0
  1  2  1  0
  2  3  1  0
  3  4  1  0
  4  5  1  0
  5  6  1  0
  6  7  1  0
  7  8  1  0
  7  9  1  0
  2 10  1  0
 10 11  1  0
 11 12  1  0
 12 13  1  0
 13 14  1  6
 13 15  1  0
 15 16  1  0
 16 17  1  0
 17 18  2  0
 18 19  1  0
 19 20  1  0
 20 21  1  0
 21 22  1  0
 22 23  1  0
 22 24  1  0
 24 25  1  0
 24 26  1  0
 19 27  1  0
 27 28  1  1
 27 29  1  0
 29 30  1  0
 30 31  1  0
 31 32  1  1
  7  5  1  0
 31 10  1  0
 31 13  1  0
 27 15  1  0
 24 18  1  0
  1 33  1  0
  1 34  1  0
  1 35  1  0
  2 36  1  1
  3 37  1  0
  3 38  1  0
  4 39  1  0
  4 40  1  0
  5 41  1  1
  8 42  1  0
  8 43  1  0
  8 44  1  0
  9 45  1  0
  9 46  1  0
  9 47  1  0
 10 48  1  6
 11 49  1  0
 11 50  1  0
 12 51  1  0
 12 52  1  0
 14 53  1  0
 14 54  1  0
 14 55  1  0
 15 56  1  1
 16 57  1  0
 16 58  1  0
 17 59  1  0
 19 60  1  6
 20 61  1  0
 20 62  1  0
 21 63  1  0
 21 64  1  0
 22 65  1  6
 23 66  1  0
 25 67  1  0
 25 68  1  0
 25 69  1  0
 26 70  1  0
 26 71  1  0
 26 72  1  0
 28 73  1  0
 28 74  1  0
 28 75  1  0
 29 76  1  0
 29 77  1  0
 30 78  1  0
 30 79  1  0
 32 80  1  0
 32 81  1  0
 32 82  1  0
M  END
>  <meeko>  (12) 
{"is_sidechain": [false], "intermolecular_energy": 2.731, "internal_energy": -0.839}

$$$$
EPH_relaxed_0001_pdb2pqr_Repair_351_r2_0001_out
     RDKit          3D

 82 86  0  0  0  0  0  0  0  0999 V2000
    0.2390   15.7100   -8.4010 C   0  0  0  0  0  0  0  0  0  0  0  0
    1.4530   15.9790   -7.5070 C   0  0  2  0  0  0  0  0  0  0  0  0
    2.6830   15.1540   -7.9350 C   0  0  0  0  0  0  0  0  0  0  0  0
    2.5010   14.4240   -9.2680 C   0  0  0  0  0  0  0  0  0  0  0  0
    2.9460   15.2650  -10.4260 C   0  0  2  0  0  0  0  0  0  0  0  0
    2.0640   16.3450  -10.7560 O   0  0  0  0  0  0  0  0  0  0  0  0
    2.2100   15.3200  -11.7520 C   0  0  0  0  0  0  0  0  0  0  0  0
    0.9680   14.5200  -11.9880 C   0  0  0  0  0  0  0  0  0  0  0  0
    2.9600   15.7650  -12.9690 C   0  0  0  0  0  0  0  0  0  0  0  0
    1.1050   15.6800   -6.0540 C   0  0  1  0  0  0  0  0  0  0  0  0
   -0.2340   16.3300   -5.6150 C   0  0  0  0  0  0  0  0  0  0  0  0
   -0.9000   15.3490   -4.6150 C   0  0  0  0  0  0  0  0  0  0  0  0
    0.2150   14.3390   -4.2580 C   0  0  1  0  0  0  0  0  0  0  0  0
    1.0770   15.0580   -3.1740 C   0  0  0  0  0  0  0  0  0  0  0  0
   -0.2580   12.9280   -3.7780 C   0  0  2  0  0  0  0  0  0  0  0  0
   -1.0770   12.9240   -2.4750 C   0  0  0  0  0  0  0  0  0  0  0  0
   -0.2810   12.7740   -1.2210 C   0  0  0  0  0  0  0  0  0  0  0  0
    0.9990   12.3640   -1.1520 C   0  0  0  0  0  0  0  0  0  0  0  0
    1.7490   11.9070   -2.4100 C   0  0  1  0  0  0  0  0  0  0  0  0
    2.4970   10.5810   -2.1140 C   0  0  0  0  0  0  0  0  0  0  0  0
    3.4100   10.6840   -0.8960 C   0  0  0  0  0  0  0  0  0  0  0  0
    2.6190   11.0840    0.3470 C   0  0  2  0  0  0  0  0  0  0  0  0
    1.7250   10.0190    0.6870 O   0  0  0  0  0  0  0  0  0  0  0  0
    1.8150   12.4020    0.1630 C   0  0  0  0  0  0  0  0  0  0  0  0
    2.7920   13.6020    0.0960 C   0  0  0  0  0  0  0  0  0  0  0  0
    0.9520   12.6160    1.4360 C   0  0  0  0  0  0  0  0  0  0  0  0
    0.8870   11.8370   -3.7440 C   0  0  1  0  0  0  0  0  0  0  0  0
    0.1830   10.4490   -3.8490 C   0  0  0  0  0  0  0  0  0  0  0  0
    1.8500   11.9420   -4.9850 C   0  0  0  0  0  0  0  0  0  0  0  0
    2.1850   13.3590   -5.4860 C   0  0  0  0  0  0  0  0  0  0  0  0
    0.9130   14.1940   -5.6600 C   0  0  2  0  0  0  0  0  0  0  0  0
    0.0360   13.5070   -6.7610 C   0  0  0  0  0  0  0  0  0  0  0  0
   -0.6427   15.5146   -7.7730 H   0  0  0  0  0  0  0  0  0  0  0  0
    0.0496   16.5880   -9.0361 H   0  0  0  0  0  0  0  0  0  0  0  0
    0.4382   14.8342   -9.0361 H   0  0  0  0  0  0  0  0  0  0  0  0
    1.7146   17.0420   -7.6151 H   0  0  0  0  0  0  0  0  0  0  0  0
    3.5427   15.8341   -8.0261 H   0  0  0  0  0  0  0  0  0  0  0  0
    2.8370   14.3836   -7.1651 H   0  0  0  0  0  0  0  0  0  0  0  0
    3.0944   13.4979   -9.2512 H   0  0  0  0  0  0  0  0  0  0  0  0
    1.4307   14.2042   -9.3952 H   0  0  0  0  0  0  0  0  0  0  0  0
    4.0030   15.0919  -10.1753 H   0  0  0  0  0  0  0  0  0  0  0  0
    0.5261   14.2353  -11.0217 H   0  0  0  0  0  0  0  0  0  0  0  0
    0.2460   15.1233  -12.5579 H   0  0  0  0  0  0  0  0  0  0  0  0
    1.2187   13.6132  -12.5579 H   0  0  0  0  0  0  0  0  0  0  0  0
    3.8687   16.3041  -12.6630 H   0  0  0  0  0  0  0  0  0  0  0  0
    3.2395   14.8865  -13.5691 H   0  0  0  0  0  0  0  0  0  0  0  0
    2.3229   16.4313  -13.5691 H   0  0  0  0  0  0  0  0  0  0  0  0
    2.0010   16.0865   -5.5621 H   0  0  0  0  0  0  0  0  0  0  0  0
   -0.0436   17.2973   -5.1271 H   0  0  0  0  0  0  0  0  0  0  0  0
   -0.8863   16.5149   -6.4812 H   0  0  0  0  0  0  0  0  0  0  0  0
   -1.2422   15.8833   -3.7164 H   0  0  0  0  0  0  0  0  0  0  0  0
   -1.7872   14.8576   -5.0410 H   0  0  0  0  0  0  0  0  0  0  0  0
    0.7263   14.7655   -2.1733 H   0  0  0  0  0  0  0  0  0  0  0  0
    2.1315   14.7680   -3.2923 H   0  0  0  0  0  0  0  0  0  0  0  0
    0.9809   16.1474   -3.2923 H   0  0  0  0  0  0  0  0  0  0  0  0
   -0.9579   12.6304   -4.5728 H   0  0  0  0  0  0  0  0  0  0  0  0
   -1.6271   13.8748   -2.4166 H   0  0  0  0  0  0  0  0  0  0  0  0
   -1.7291   12.0398   -2.5286 H   0  0  0  0  0  0  0  0  0  0  0  0
   -0.7830   13.0193   -0.2735 H   0  0  0  0  0  0  0  0  0  0  0  0
    2.4746   12.7019   -2.6371 H   0  0  0  0  0  0  0  0  0  0  0  0
    1.7544    9.7902   -1.9322 H   0  0  0  0  0  0  0  0  0  0  0  0
    3.1275   10.3514   -2.9856 H   0  0  0  0  0  0  0  0  0  0  0  0
    3.8873    9.7086   -0.7205 H   0  0  0  0  0  0  0  0  0  0  0  0
    4.1701   11.4548   -1.0914 H   0  0  0  0  0  0  0  0  0  0  0  0
    3.3432   11.2679    1.1543 H   0  0  0  0  0  0  0  0  0  0  0  0
    1.8360    9.8340    1.6350 H   0  0  0  0  0  0  0  0  0  0  0  0
    3.0516   13.9209    1.1163 H   0  0  0  0  0  0  0  0  0  0  0  0
    3.7056   13.3016   -0.4379 H   0  0  0  0  0  0  0  0  0  0  0  0
    2.3126   14.4357   -0.4379 H   0  0  0  0  0  0  0  0  0  0  0  0
    1.5735   12.4619    2.3305 H   0  0  0  0  0  0  0  0  0  0  0  0
    0.5518   13.6406    1.4397 H   0  0  0  0  0  0  0  0  0  0  0  0
    0.1194   11.8971    1.4397 H   0  0  0  0  0  0  0  0  0  0  0  0
   -0.0141   10.0605   -2.8389 H   0  0  0  0  0  0  0  0  0  0  0  0
   -0.7677   10.5601   -4.3911 H   0  0  0  0  0  0  0  0  0  0  0  0
    0.8343    9.7476   -4.3911 H   0  0  0  0  0  0  0  0  0  0  0  0
    2.7970   11.4524   -4.7137 H   0  0  0  0  0  0  0  0  0  0  0  0
    1.3052   11.4652   -5.8132 H   0  0  0  0  0  0  0  0  0  0  0  0
    2.8425   13.8529   -4.7554 H   0  0  0  0  0  0  0  0  0  0  0  0
    2.6866   13.2766   -6.4615 H   0  0  0  0  0  0  0  0  0  0  0  0
   -0.7432   12.8966   -6.2811 H   0  0  0  0  0  0  0  0  0  0  0  0
   -0.4362   14.2780   -7.3876 H   0  0  0  0  0  0  0  0  0  0  0  0
    0.6715   12.8639   -7.3876 H   0  0  0  0  0  0  0  0  0  0  0  0
  1  2  1  0
  2  3  1  0
  3  4  1  0
  4  5  1  0
  5  6  1  0
  6  7  1  0
  7  8  1  0
  7  9  1  0
  2 10  1  0
 10 11  1  0
 11 12  1  0
 12 13  1  0
 13 14  1  1
 13 15  1  0
 15 16  1  0
 16 17  1  0
 17 18  2  0
 18 19  1  0
 19 20  1  0
 20 21  1  0
 21 22  1  0
 22 23  1  0
 22 24  1  0
 24 25  1  0
 24 26  1  0
 19 27  1  0
 27 28  1  6
 27 29  1  0
 29 30  1  0
 30 31  1  0
 31 32  1  6
  7  5  1  0
 31 10  1  0
 31 13  1  0
 27 15  1  0
 24 18  1  0
  1 33  1  0
  1 34  1  0
  1 35  1  0
  2 36  1  1
  3 37  1  0
  3 38  1  0
  4 39  1  0
  4 40  1  0
  5 41  1  6
  8 42  1  0
  8 43  1  0
  8 44  1  0
  9 45  1  0
  9 46  1  0
  9 47  1  0
 10 48  1  1
 11 49  1  0
 11 50  1  0
 12 51  1  0
 12 52  1  0
 14 53  1  0
 14 54  1  0
 14 55  1  0
 15 56  1  6
 16 57  1  0
 16 58  1  0
 17 59  1  0
 19 60  1  6
 20 61  1  0
 20 62  1  0
 21 63  1  0
 21 64  1  0
 22 65  1  1
 23 66  1  0
 25 67  1  0
 25 68  1  0
 25 69  1  0
 26 70  1  0
 26 71  1  0
 26 72  1  0
 28 73  1  0
 28 74  1  0
 28 75  1  0
 29 76  1  0
 29 77  1  0
 30 78  1  0
 30 79  1  0
 32 80  1  0
 32 81  1  0
 32 82  1  0
M  END
>  <meeko>  (13) 
{"is_sidechain": [false], "intermolecular_energy": 2.731, "internal_energy": -0.839}

$$$$
EPH_relaxed_0001_pdb2pqr_Repair_351_r2_0001_out
     RDKit          3D

 82 86  0  0  0  0  0  0  0  0999 V2000
    2.9140   11.7070   -5.8030 C   0  0  0  0  0  0  0  0  0  0  0  0
    2.2610   11.4260   -4.4470 C   0  0  2  0  0  0  0  0  0  0  0  0
    1.2310   10.2810   -4.5240 C   0  0  0  0  0  0  0  0  0  0  0  0
    0.9640    9.6020   -3.1780 C   0  0  0  0  0  0  0  0  0  0  0  0
   -0.5000    9.3640   -2.9580 C   0  0  2  0  0  0  0  0  0  0  0  0
   -1.0700   10.1080   -1.8730 O   0  0  0  0  0  0  0  0  0  0  0  0
   -1.0600    8.6780   -1.7260 C   0  0  0  0  0  0  0  0  0  0  0  0
   -0.1640    8.1860   -0.6320 C   0  0  0  0  0  0  0  0  0  0  0  0
   -2.4170    8.0540   -1.8100 C   0  0  0  0  0  0  0  0  0  0  0  0
    1.5940   12.6920   -3.9200 C   0  0  1  0  0  0  0  0  0  0  0  0
    0.0450   12.5870   -3.9000 C   0  0  0  0  0  0  0  0  0  0  0  0
   -0.4410   13.3770   -2.6580 C   0  0  0  0  0  0  0  0  0  0  0  0
    0.7990   14.1800   -2.1970 C   0  0  1  0  0  0  0  0  0  0  0  0
    0.8380   15.4290   -3.1320 C   0  0  0  0  0  0  0  0  0  0  0  0
    0.8360   14.5870   -0.6880 C   0  0  2  0  0  0  0  0  0  0  0  0
   -0.2980   15.5240   -0.2370 C   0  0  0  0  0  0  0  0  0  0  0  0
   -0.0020   16.9830   -0.3480 C   0  0  0  0  0  0  0  0  0  0  0  0
    1.2190   17.5220   -0.5200 C   0  0  0  0  0  0  0  0  0  0  0  0
    2.4750   16.6420   -0.5230 C   0  0  1  0  0  0  0  0  0  0  0  0
    3.5630   17.2900    0.3750 C   0  0  0  0  0  0  0  0  0  0  0  0
    3.8610   18.7340   -0.0170 C   0  0  0  0  0  0  0  0  0  0  0  0
    2.5990   19.5900    0.0540 C   0  0  2  0  0  0  0  0  0  0  0  0
    2.1870   19.6910    1.4200 O   0  0  0  0  0  0  0  0  0  0  0  0
    1.4300   19.0300   -0.8040 C   0  0  0  0  0  0  0  0  0  0  0  0
    1.7600   19.2000   -2.3080 C   0  0  0  0  0  0  0  0  0  0  0  0
    0.1770   19.9060   -0.5330 C   0  0  0  0  0  0  0  0  0  0  0  0
    2.2460   15.1050   -0.1910 C   0  0  1  0  0  0  0  0  0  0  0  0
    2.2830   14.8830    1.3520 C   0  0  0  0  0  0  0  0  0  0  0  0
    3.4360   14.2660   -0.7890 C   0  0  0  0  0  0  0  0  0  0  0  0
    3.2880   13.7910   -2.2470 C   0  0  0  0  0  0  0  0  0  0  0  0
    1.9280   13.1210   -2.4690 C   0  0  2  0  0  0  0  0  0  0  0  0
    1.8680   11.8480   -1.5580 C   0  0  0  0  0  0  0  0  0  0  0  0
    3.9141   12.1374   -5.6462 H   0  0  0  0  0  0  0  0  0  0  0  0
    3.0035   10.7678   -6.3685 H   0  0  0  0  0  0  0  0  0  0  0  0
    2.2935   12.4178   -6.3685 H   0  0  0  0  0  0  0  0  0  0  0  0
    3.0559   11.1084   -3.7561 H   0  0  0  0  0  0  0  0  0  0  0  0
    0.2824   10.6919   -4.8999 H   0  0  0  0  0  0  0  0  0  0  0  0
    1.6509    9.5152   -5.1927 H   0  0  0  0  0  0  0  0  0  0  0  0
    1.4896    8.6360   -3.1555 H   0  0  0  0  0  0  0  0  0  0  0  0
    1.3271   10.2668   -2.3804 H   0  0  0  0  0  0  0  0  0  0  0  0
   -0.6585    9.1935   -4.0331 H   0  0  0  0  0  0  0  0  0  0  0  0
   -0.6088    8.4302    0.3440 H   0  0  0  0  0  0  0  0  0  0  0  0
   -0.0448    7.0959   -0.7181 H   0  0  0  0  0  0  0  0  0  0  0  0
    0.8198    8.6704   -0.7181 H   0  0  0  0  0  0  0  0  0  0  0  0
   -2.8025    7.8767   -0.7951 H   0  0  0  0  0  0  0  0  0  0  0  0
   -3.0984    8.7292   -2.3483 H   0  0  0  0  0  0  0  0  0  0  0  0
   -2.3479    7.0972   -2.3483 H   0  0  0  0  0  0  0  0  0  0  0  0
    2.0007   13.4248   -4.6324 H   0  0  0  0  0  0  0  0  0  0  0  0
   -0.3762   13.0257   -4.8166 H   0  0  0  0  0  0  0  0  0  0  0  0
   -0.2790   11.5369   -3.8517 H   0  0  0  0  0  0  0  0  0  0  0  0
   -1.2648   14.0547   -2.9266 H   0  0  0  0  0  0  0  0  0  0  0  0
   -0.8276   12.7163   -1.8681 H   0  0  0  0  0  0  0  0  0  0  0  0
    0.8666   16.3434   -2.5213 H   0  0  0  0  0  0  0  0  0  0  0  0
    1.7352   15.3839   -3.7669 H   0  0  0  0  0  0  0  0  0  0  0  0
   -0.0602   15.4400   -3.7669 H   0  0  0  0  0  0  0  0  0  0  0  0
    0.6511   13.6287   -0.1806 H   0  0  0  0  0  0  0  0  0  0  0  0
   -1.1826   15.3087   -0.8544 H   0  0  0  0  0  0  0  0  0  0  0  0
   -0.4493   15.3249    0.8342 H   0  0  0  0  0  0  0  0  0  0  0  0
   -0.8539   17.6760   -0.2838 H   0  0  0  0  0  0  0  0  0  0  0  0
    2.8217   16.6103   -1.5665 H   0  0  0  0  0  0  0  0  0  0  0  0
    3.2154   17.2724    1.4185 H   0  0  0  0  0  0  0  0  0  0  0  0
    4.4897   16.7112    0.2473 H   0  0  0  0  0  0  0  0  0  0  0  0
    4.6144   19.1456    0.6708 H   0  0  0  0  0  0  0  0  0  0  0  0
    4.2363   18.7469   -1.0509 H   0  0  0  0  0  0  0  0  0  0  0  0
    2.8470   20.5783   -0.3604 H   0  0  0  0  0  0  0  0  0  0  0  0
    1.2150   19.6800    1.4360 H   0  0  0  0  0  0  0  0  0  0  0  0
    2.7332   19.7013   -2.4155 H   0  0  0  0  0  0  0  0  0  0  0  0
    1.8019   18.2113   -2.7882 H   0  0  0  0  0  0  0  0  0  0  0  0
    0.9793   19.8081   -2.7882 H   0  0  0  0  0  0  0  0  0  0  0  0
    0.0295   20.0092    0.5522 H   0  0  0  0  0  0  0  0  0  0  0  0
    0.3215   20.9008   -0.9796 H   0  0  0  0  0  0  0  0  0  0  0  0
   -0.7077   19.4286   -0.9796 H   0  0  0  0  0  0  0  0  0  0  0  0
    2.1230   15.8431    1.8645 H   0  0  0  0  0  0  0  0  0  0  0  0
    1.4901   14.1770    1.6400 H   0  0  0  0  0  0  0  0  0  0  0  0
    3.2620   14.4723    1.6400 H   0  0  0  0  0  0  0  0  0  0  0  0
    4.3424   14.8866   -0.7317 H   0  0  0  0  0  0  0  0  0  0  0  0
    3.4688   13.3450   -0.1884 H   0  0  0  0  0  0  0  0  0  0  0  0
    3.3764   14.6576   -2.9187 H   0  0  0  0  0  0  0  0  0  0  0  0
    4.0797   13.0575   -2.4595 H   0  0  0  0  0  0  0  0  0  0  0  0
    1.8824   12.1525   -0.5011 H   0  0  0  0  0  0  0  0  0  0  0  0
    0.9426   11.2911   -1.7666 H   0  0  0  0  0  0  0  0  0  0  0  0
    2.7369   11.2065   -1.7666 H   0  0  0  0  0  0  0  0  0  0  0  0
  1  2  1  0
  2  3  1  0
  3  4  1  0
  4  5  1  0
  5  6  1  0
  6  7  1  0
  7  8  1  0
  7  9  1  0
  2 10  1  0
 10 11  1  0
 11 12  1  0
 12 13  1  0
 13 14  1  6
 13 15  1  0
 15 16  1  0
 16 17  1  0
 17 18  2  0
 18 19  1  0
 19 20  1  0
 20 21  1  0
 21 22  1  0
 22 23  1  0
 22 24  1  0
 24 25  1  0
 24 26  1  0
 19 27  1  0
 27 28  1  1
 27 29  1  0
 29 30  1  0
 30 31  1  0
 31 32  1  1
  7  5  1  0
 31 10  1  0
 31 13  1  0
 27 15  1  0
 24 18  1  0
  1 33  1  0
  1 34  1  0
  1 35  1  0
  2 36  1  1
  3 37  1  0
  3 38  1  0
  4 39  1  0
  4 40  1  0
  5 41  1  6
  8 42  1  0
  8 43  1  0
  8 44  1  0
  9 45  1  0
  9 46  1  0
  9 47  1  0
 10 48  1  6
 11 49  1  0
 11 50  1  0
 12 51  1  0
 12 52  1  0
 14 53  1  0
 14 54  1  0
 14 55  1  0
 15 56  1  1
 16 57  1  0
 16 58  1  0
 17 59  1  0
 19 60  1  6
 20 61  1  0
 20 62  1  0
 21 63  1  0
 21 64  1  0
 22 65  1  6
 23 66  1  0
 25 67  1  0
 25 68  1  0
 25 69  1  0
 26 70  1  0
 26 71  1  0
 26 72  1  0
 28 73  1  0
 28 74  1  0
 28 75  1  0
 29 76  1  0
 29 77  1  0
 30 78  1  0
 30 79  1  0
 32 80  1  0
 32 81  1  0
 32 82  1  0
M  END
>  <meeko>  (14) 
{"is_sidechain": [false], "intermolecular_energy": 2.731, "internal_energy": -0.839}

$$$$
EPH_relaxed_0001_pdb2pqr_Repair_351_r2_0001_out
     RDKit          3D

 82 86  0  0  0  0  0  0  0  0999 V2000
  -13.8330    5.5110    0.4230 C   0  0  0  0  0  0  0  0  0  0  0  0
  -13.4510    6.9680    0.1500 C   0  0  2  0  0  0  0  0  0  0  0  0
  -14.6670    7.8180   -0.2710 C   0  0  0  0  0  0  0  0  0  0  0  0
  -14.5780    9.2810    0.1720 C   0  0  0  0  0  0  0  0  0  0  0  0
  -15.2800   10.1940   -0.7880 C   0  0  2  0  0  0  0  0  0  0  0  0
  -15.1120    9.8540   -2.1700 O   0  0  0  0  0  0  0  0  0  0  0  0
  -14.5540   11.1110   -1.7540 C   0  0  0  0  0  0  0  0  0  0  0  0
  -13.0600   11.1610   -1.8090 C   0  0  0  0  0  0  0  0  0  0  0  0
  -15.2820   12.3020   -2.2950 C   0  0  0  0  0  0  0  0  0  0  0  0
  -12.3740    7.0310   -0.9270 C   0  0  1  0  0  0  0  0  0  0  0  0
  -12.6820    8.0890   -2.0190 C   0  0  0  0  0  0  0  0  0  0  0  0
  -11.3210    8.6860   -2.4600 C   0  0  0  0  0  0  0  0  0  0  0  0
  -10.2630    7.7310   -1.8590 C   0  0  1  0  0  0  0  0  0  0  0  0
  -10.1990    6.5270   -2.8500 C   0  0  0  0  0  0  0  0  0  0  0  0
   -8.8470    8.3430   -1.6010 C   0  0  2  0  0  0  0  0  0  0  0  0
   -8.1100    8.8330   -2.8590 C   0  0  0  0  0  0  0  0  0  0  0  0
   -7.2420    7.8190   -3.5260 C   0  0  0  0  0  0  0  0  0  0  0  0
   -6.8360    6.6570   -2.9810 C   0  0  0  0  0  0  0  0  0  0  0  0
   -7.1730    6.3100   -1.5250 C   0  0  1  0  0  0  0  0  0  0  0  0
   -5.9020    5.7790   -0.8110 C   0  0  0  0  0  0  0  0  0  0  0  0
   -5.2580    4.6130   -1.5550 C   0  0  0  0  0  0  0  0  0  0  0  0
   -4.8840    5.0140   -2.9790 C   0  0  2  0  0  0  0  0  0  0  0  0
   -3.8420    5.9930   -2.9240 O   0  0  0  0  0  0  0  0  0  0  0  0
   -6.0840    5.5740   -3.7930 C   0  0  0  0  0  0  0  0  0  0  0  0
   -7.0760    4.4290   -4.1120 C   0  0  0  0  0  0  0  0  0  0  0  0
   -5.5420    6.0720   -5.1600 C   0  0  0  0  0  0  0  0  0  0  0  0
   -7.9100    7.4470   -0.6940 C   0  0  1  0  0  0  0  0  0  0  0  0
   -6.8580    8.4060   -0.0570 C   0  0  0  0  0  0  0  0  0  0  0  0
   -8.6900    6.7860    0.5030 C   0  0  0  0  0  0  0  0  0  0  0  0
  -10.1270    6.3100    0.2170 C   0  0  0  0  0  0  0  0  0  0  0  0
  -10.9400    7.4070   -0.4770 C   0  0  2  0  0  0  0  0  0  0  0  0
  -11.0400    8.6230    0.5060 C   0  0  0  0  0  0  0  0  0  0  0  0
  -13.8776    5.3409    1.5089 H   0  0  0  0  0  0  0  0  0  0  0  0
  -14.8167    5.3003   -0.0218 H   0  0  0  0  0  0  0  0  0  0  0  0
  -13.0792    4.8448   -0.0218 H   0  0  0  0  0  0  0  0  0  0  0  0
  -13.0624    7.3891    1.0890 H   0  0  0  0  0  0  0  0  0  0  0  0
  -14.7463    7.7914   -1.3678 H   0  0  0  0  0  0  0  0  0  0  0  0
  -15.5488    7.3852    0.2241 H   0  0  0  0  0  0  0  0  0  0  0  0
  -15.0419    9.3820    1.1643 H   0  0  0  0  0  0  0  0  0  0  0  0
  -13.5161    9.5663    0.2029 H   0  0  0  0  0  0  0  0  0  0  0  0
  -16.0850   10.3769   -0.0610 H   0  0  0  0  0  0  0  0  0  0  0  0
  -12.6557   11.1745   -0.7861 H   0  0  0  0  0  0  0  0  0  0  0  0
  -12.6828   10.2750   -2.3407 H   0  0  0  0  0  0  0  0  0  0  0  0
  -12.7429   12.0703   -2.3407 H   0  0  0  0  0  0  0  0  0  0  0  0
  -15.6558   12.9135   -1.4605 H   0  0  0  0  0  0  0  0  0  0  0  0
  -14.5963   12.9022   -2.9110 H   0  0  0  0  0  0  0  0  0  0  0  0
  -16.1289   11.9654   -2.9110 H   0  0  0  0  0  0  0  0  0  0  0  0
  -12.3983    5.9872   -1.2733 H   0  0  0  0  0  0  0  0  0  0  0  0
  -13.1828    7.6144   -2.8757 H   0  0  0  0  0  0  0  0  0  0  0  0
  -13.3503    8.8726   -1.6324 H   0  0  0  0  0  0  0  0  0  0  0  0
  -11.2444    8.7094   -3.5571 H   0  0  0  0  0  0  0  0  0  0  0  0
  -11.1896    9.7229   -2.1173 H   0  0  0  0  0  0  0  0  0  0  0  0
  -10.1490    5.5865   -2.2816 H   0  0  0  0  0  0  0  0  0  0  0  0
  -11.0983    6.5253   -3.4834 H   0  0  0  0  0  0  0  0  0  0  0  0
   -9.3046    6.6206   -3.4834 H   0  0  0  0  0  0  0  0  0  0  0  0
   -9.0820    9.2477   -1.0211 H   0  0  0  0  0  0  0  0  0  0  0  0
   -8.8647    9.1656   -3.5869 H   0  0  0  0  0  0  0  0  0  0  0  0
   -7.4368    9.6356   -2.5235 H   0  0  0  0  0  0  0  0  0  0  0  0
   -6.9054    8.0397   -4.5497 H   0  0  0  0  0  0  0  0  0  0  0  0
   -7.9341    5.5171   -1.5700 H   0  0  0  0  0  0  0  0  0  0  0  0
   -5.1708    6.5975   -0.7374 H   0  0  0  0  0  0  0  0  0  0  0  0
   -6.2038    5.4158    0.1825 H   0  0  0  0  0  0  0  0  0  0  0  0
   -4.3497    4.3014   -1.0185 H   0  0  0  0  0  0  0  0  0  0  0  0
   -5.9804    3.7848   -1.6019 H   0  0  0  0  0  0  0  0  0  0  0  0
   -4.5482    4.1052   -3.4998 H   0  0  0  0  0  0  0  0  0  0  0  0
   -3.0140    5.5300   -2.7090 H   0  0  0  0  0  0  0  0  0  0  0  0
   -7.4509    3.9963   -3.1727 H   0  0  0  0  0  0  0  0  0  0  0  0
   -7.9198    4.8267   -4.6950 H   0  0  0  0  0  0  0  0  0  0  0  0
   -6.5622    3.6505   -4.6950 H   0  0  0  0  0  0  0  0  0  0  0  0
   -4.7416    6.8074   -4.9912 H   0  0  0  0  0  0  0  0  0  0  0  0
   -5.1425    5.2193   -5.7287 H   0  0  0  0  0  0  0  0  0  0  0  0
   -6.3579    6.5421   -5.7287 H   0  0  0  0  0  0  0  0  0  0  0  0
   -6.9237    8.3461    1.0394 H   0  0  0  0  0  0  0  0  0  0  0  0
   -5.8491    8.1104   -0.3805 H   0  0  0  0  0  0  0  0  0  0  0  0
   -7.0592    9.4379   -0.3805 H   0  0  0  0  0  0  0  0  0  0  0  0
   -8.1102    5.9126    0.8362 H   0  0  0  0  0  0  0  0  0  0  0  0
   -8.7948    7.5832    1.2536 H   0  0  0  0  0  0  0  0  0  0  0  0
  -10.0897    5.4237   -0.4335 H   0  0  0  0  0  0  0  0  0  0  0  0
  -10.6124    6.0656    1.1734 H   0  0  0  0  0  0  0  0  0  0  0  0
  -11.0101    8.2591    1.5436 H   0  0  0  0  0  0  0  0  0  0  0  0
  -10.1949    9.3054    0.3322 H   0  0  0  0  0  0  0  0  0  0  0  0
  -11.9852    9.1582    0.3322 H   0  0  0  0  0  0  0  0  0  0  0  0
  1  2  1  0
  2  3  1  0
  3  4  1  0
  4  5  1  0
  5  6  1  0
  6  7  1  0
  7  8  1  0
  7  9  1  0
  2 10  1  0
 10 11  1  0
 11 12  1  0
 12 13  1  0
 13 14  1  6
 13 15  1  0
 15 16  1  0
 16 17  1  0
 17 18  2  0
 18 19  1  0
 19 20  1  0
 20 21  1  0
 21 22  1  0
 22 23  1  0
 22 24  1  0
 24 25  1  0
 24 26  1  0
 19 27  1  0
 27 28  1  1
 27 29  1  0
 29 30  1  0
 30 31  1  0
 31 32  1  1
  7  5  1  0
 31 10  1  0
 31 13  1  0
 27 15  1  0
 24 18  1  0
  1 33  1  0
  1 34  1  0
  1 35  1  0
  2 36  1  1
  3 37  1  0
  3 38  1  0
  4 39  1  0
  4 40  1  0
  5 41  1  1
  8 42  1  0
  8 43  1  0
  8 44  1  0
  9 45  1  0
  9 46  1  0
  9 47  1  0
 10 48  1  6
 11 49  1  0
 11 50  1  0
 12 51  1  0
 12 52  1  0
 14 53  1  0
 14 54  1  0
 14 55  1  0
 15 56  1  1
 16 57  1  0
 16 58  1  0
 17 59  1  0
 19 60  1  6
 20 61  1  0
 20 62  1  0
 21 63  1  0
 21 64  1  0
 22 65  1  6
 23 66  1  0
 25 67  1  0
 25 68  1  0
 25 69  1  0
 26 70  1  0
 26 71  1  0
 26 72  1  0
 28 73  1  0
 28 74  1  0
 28 75  1  0
 29 76  1  0
 29 77  1  0
 30 78  1  0
 30 79  1  0
 32 80  1  0
 32 81  1  0
 32 82  1  0
M  END
>  <meeko>  (15) 
{"is_sidechain": [false], "intermolecular_energy": 2.731, "internal_energy": -0.839}

$$$$
EPH_relaxed_0001_pdb2pqr_Repair_351_r2_0001_out
     RDKit          3D

 82 86  0  0  0  0  0  0  0  0999 V2000
    3.1090   11.2250   -4.1320 C   0  0  0  0  0  0  0  0  0  0  0  0
    1.9820   11.8000   -4.9950 C   0  0  2  0  0  0  0  0  0  0  0  0
    2.5200   12.5150   -6.2510 C   0  0  0  0  0  0  0  0  0  0  0  0
    1.8140   13.8390   -6.5550 C   0  0  0  0  0  0  0  0  0  0  0  0
    2.3530   14.4830   -7.7970 C   0  0  2  0  0  0  0  0  0  0  0  0
    2.4170   15.9140   -7.7500 O   0  0  0  0  0  0  0  0  0  0  0  0
    1.5180   15.3510   -8.7190 C   0  0  0  0  0  0  0  0  0  0  0  0
    0.0740   15.6230   -8.4390 C   0  0  0  0  0  0  0  0  0  0  0  0
    1.9690   15.5300  -10.1350 C   0  0  0  0  0  0  0  0  0  0  0  0
    1.1360   12.7630   -4.1700 C   0  0  1  0  0  0  0  0  0  0  0  0
   -0.2340   12.1560   -3.7640 C   0  0  0  0  0  0  0  0  0  0  0  0
   -0.5680   12.7100   -2.3550 C   0  0  0  0  0  0  0  0  0  0  0  0
    0.4420   13.8610   -2.1390 C   0  0  1  0  0  0  0  0  0  0  0  0
   -0.1700   15.0790   -2.9000 C   0  0  0  0  0  0  0  0  0  0  0  0
    0.7760   14.2180   -0.6530 C   0  0  2  0  0  0  0  0  0  0  0  0
   -0.4160   14.7190    0.1810 C   0  0  0  0  0  0  0  0  0  0  0  0
   -0.6270   16.1970    0.1680 C   0  0  0  0  0  0  0  0  0  0  0  0
    0.2690   17.1110   -0.2490 C   0  0  0  0  0  0  0  0  0  0  0  0
    1.6810   16.6920   -0.6780 C   0  0  1  0  0  0  0  0  0  0  0  0
    2.7230   17.6350   -0.0230 C   0  0  0  0  0  0  0  0  0  0  0  0
    2.4400   19.1070   -0.3070 C   0  0  0  0  0  0  0  0  0  0  0  0
    1.0500   19.5000    0.1860 C   0  0  2  0  0  0  0  0  0  0  0  0
    1.0290   19.4250    1.6150 O   0  0  0  0  0  0  0  0  0  0  0  0
   -0.0820   18.6120   -0.4000 C   0  0  0  0  0  0  0  0  0  0  0  0
   -0.2580   18.9210   -1.9080 C   0  0  0  0  0  0  0  0  0  0  0  0
   -1.4140   19.0210    0.2850 C   0  0  0  0  0  0  0  0  0  0  0  0
    2.0380   15.1560   -0.4800 C   0  0  1  0  0  0  0  0  0  0  0  0
    2.5750   14.9170    0.9640 C   0  0  0  0  0  0  0  0  0  0  0  0
    3.2090   14.7700   -1.4590 C   0  0  0  0  0  0  0  0  0  0  0  0
    2.8090   14.3110   -2.8740 C   0  0  0  0  0  0  0  0  0  0  0  0
    1.7170   13.2390   -2.8150 C   0  0  2  0  0  0  0  0  0  0  0  0
    2.3100   11.9930   -2.0740 C   0  0  0  0  0  0  0  0  0  0  0  0
    2.8583   11.3529   -3.0686 H   0  0  0  0  0  0  0  0  0  0  0  0
    3.2309   10.1545   -4.3538 H   0  0  0  0  0  0  0  0  0  0  0  0
    4.0473   11.7546   -4.3538 H   0  0  0  0  0  0  0  0  0  0  0  0
    1.3619   10.9573   -5.3347 H   0  0  0  0  0  0  0  0  0  0  0  0
    3.5909   12.7184   -6.1030 H   0  0  0  0  0  0  0  0  0  0  0  0
    2.3339   11.8477   -7.1054 H   0  0  0  0  0  0  0  0  0  0  0  0
    0.7394   13.6469   -6.6907 H   0  0  0  0  0  0  0  0  0  0  0  0
    1.9891   14.5224   -5.7110 H   0  0  0  0  0  0  0  0  0  0  0  0
    3.0075   13.6199   -7.9886 H   0  0  0  0  0  0  0  0  0  0  0  0
   -0.0892   15.6537   -7.3516 H   0  0  0  0  0  0  0  0  0  0  0  0
   -0.2091   16.5903   -8.8797 H   0  0  0  0  0  0  0  0  0  0  0  0
   -0.5416   14.8250   -8.8797 H   0  0  0  0  0  0  0  0  0  0  0  0
    2.9914   15.9358  -10.1457 H   0  0  0  0  0  0  0  0  0  0  0  0
    1.9549   14.5581  -10.6500 H   0  0  0  0  0  0  0  0  0  0  0  0
    1.2922   16.2277  -10.6500 H   0  0  0  0  0  0  0  0  0  0  0  0
    1.0799   13.6077   -4.8724 H   0  0  0  0  0  0  0  0  0  0  0  0
   -1.0099   12.4571   -4.4832 H   0  0  0  0  0  0  0  0  0  0  0  0
   -0.1928   11.0568   -3.7569 H   0  0  0  0  0  0  0  0  0  0  0  0
   -1.6005   13.0879   -2.3210 H   0  0  0  0  0  0  0  0  0  0  0  0
   -0.4939   11.9381   -1.5749 H   0  0  0  0  0  0  0  0  0  0  0  0
   -0.5407   15.8168   -2.1732 H   0  0  0  0  0  0  0  0  0  0  0  0
    0.6023   15.5425   -3.5315 H   0  0  0  0  0  0  0  0  0  0  0  0
   -1.0028   14.7360   -3.5315 H   0  0  0  0  0  0  0  0  0  0  0  0
    1.0460   13.2392   -0.2298 H   0  0  0  0  0  0  0  0  0  0  0  0
   -1.3276   14.2421   -0.2083 H   0  0  0  0  0  0  0  0  0  0  0  0
   -0.1907   14.4529    1.2243 H   0  0  0  0  0  0  0  0  0  0  0  0
   -1.5964   16.5705    0.5297 H   0  0  0  0  0  0  0  0  0  0  0  0
    1.7124   16.8046   -1.7718 H   0  0  0  0  0  0  0  0  0  0  0  0
    2.7070   17.4765    1.0654 H   0  0  0  0  0  0  0  0  0  0  0  0
    3.7068   17.3952   -0.4526 H   0  0  0  0  0  0  0  0  0  0  0  0
    3.1920   19.7239    0.2068 H   0  0  0  0  0  0  0  0  0  0  0  0
    2.4863   19.2702   -1.3938 H   0  0  0  0  0  0  0  0  0  0  0  0
    0.8553   20.5255   -0.1610 H   0  0  0  0  0  0  0  0  0  0  0  0
    1.6230   18.7020    1.8800 H   0  0  0  0  0  0  0  0  0  0  0  0
   -0.7992   19.8712   -2.0268 H   0  0  0  0  0  0  0  0  0  0  0  0
    0.7306   19.0001   -2.3839 H   0  0  0  0  0  0  0  0  0  0  0  0
   -0.8303   18.1111   -2.3839 H   0  0  0  0  0  0  0  0  0  0  0  0
   -1.2912   18.9833    1.3775 H   0  0  0  0  0  0  0  0  0  0  0  0
   -1.6836   20.0433   -0.0186 H   0  0  0  0  0  0  0  0  0  0  0  0
   -2.2109   18.3262   -0.0186 H   0  0  0  0  0  0  0  0  0  0  0  0
    1.8237   15.2514    1.6946 H   0  0  0  0  0  0  0  0  0  0  0  0
    2.7749   13.8450    1.1081 H   0  0  0  0  0  0  0  0  0  0  0  0
    3.5053   15.4860    1.1081 H   0  0  0  0  0  0  0  0  0  0  0  0
    3.8574   15.6521   -1.5662 H   0  0  0  0  0  0  0  0  0  0  0  0
    3.6923   13.8955   -0.9988 H   0  0  0  0  0  0  0  0  0  0  0  0
    2.4335   15.1762   -3.4401 H   0  0  0  0  0  0  0  0  0  0  0  0
    3.6943   13.8827   -3.3668 H   0  0  0  0  0  0  0  0  0  0  0  0
    2.2380   12.1443   -0.9868 H   0  0  0  0  0  0  0  0  0  0  0  0
    1.7433   11.0938   -2.3574 H   0  0  0  0  0  0  0  0  0  0  0  0
    3.3652   11.8658   -2.3574 H   0  0  0  0  0  0  0  0  0  0  0  0
  1  2  1  0
  2  3  1  0
  3  4  1  0
  4  5  1  0
  5  6  1  0
  6  7  1  0
  7  8  1  0
  7  9  1  0
  2 10  1  0
 10 11  1  0
 11 12  1  0
 12 13  1  0
 13 14  1  6
 13 15  1  0
 15 16  1  0
 16 17  1  0
 17 18  2  0
 18 19  1  0
 19 20  1  0
 20 21  1  0
 21 22  1  0
 22 23  1  0
 22 24  1  0
 24 25  1  0
 24 26  1  0
 19 27  1  0
 27 28  1  1
 27 29  1  0
 29 30  1  0
 30 31  1  0
 31 32  1  1
  7  5  1  0
 31 10  1  0
 31 13  1  0
 27 15  1  0
 24 18  1  0
  1 33  1  0
  1 34  1  0
  1 35  1  0
  2 36  1  6
  3 37  1  0
  3 38  1  0
  4 39  1  0
  4 40  1  0
  5 41  1  6
  8 42  1  0
  8 43  1  0
  8 44  1  0
  9 45  1  0
  9 46  1  0
  9 47  1  0
 10 48  1  6
 11 49  1  0
 11 50  1  0
 12 51  1  0
 12 52  1  0
 14 53  1  0
 14 54  1  0
 14 55  1  0
 15 56  1  1
 16 57  1  0
 16 58  1  0
 17 59  1  0
 19 60  1  6
 20 61  1  0
 20 62  1  0
 21 63  1  0
 21 64  1  0
 22 65  1  1
 23 66  1  0
 25 67  1  0
 25 68  1  0
 25 69  1  0
 26 70  1  0
 26 71  1  0
 26 72  1  0
 28 73  1  0
 28 74  1  0
 28 75  1  0
 29 76  1  0
 29 77  1  0
 30 78  1  0
 30 79  1  0
 32 80  1  0
 32 81  1  0
 32 82  1  0
M  END
>  <meeko>  (16) 
{"is_sidechain": [false], "intermolecular_energy": 2.731, "internal_energy": -0.839}

$$$$
EPH_relaxed_0001_pdb2pqr_Repair_351_r2_0001_out
     RDKit          3D

 82 86  0  0  0  0  0  0  0  0999 V2000
    0.4200   10.0440   -4.6170 C   0  0  0  0  0  0  0  0  0  0  0  0
    1.4250   10.9670   -3.9220 C   0  0  2  0  0  0  0  0  0  0  0  0
    2.2210   10.2350   -2.8230 C   0  0  0  0  0  0  0  0  0  0  0  0
    3.6810    9.9640   -3.1980 C   0  0  0  0  0  0  0  0  0  0  0  0
    4.2290   11.0290   -4.0980 C   0  0  2  0  0  0  0  0  0  0  0  0
    4.8620   10.5410   -5.2880 O   0  0  0  0  0  0  0  0  0  0  0  0
    5.7110   11.2270   -4.3540 C   0  0  0  0  0  0  0  0  0  0  0  0
    6.7380   10.3520   -3.7080 C   0  0  0  0  0  0  0  0  0  0  0  0
    6.1820   12.5640   -4.8370 C   0  0  0  0  0  0  0  0  0  0  0  0
    0.7000   12.1690   -3.3270 C   0  0  1  0  0  0  0  0  0  0  0  0
   -0.6290   11.7790   -2.6270 C   0  0  0  0  0  0  0  0  0  0  0  0
   -0.7890   12.7260   -1.4110 C   0  0  0  0  0  0  0  0  0  0  0  0
    0.2660   13.8330   -1.6370 C   0  0  1  0  0  0  0  0  0  0  0  0
   -0.3970   14.8180   -2.6500 C   0  0  0  0  0  0  0  0  0  0  0  0
    0.7740   14.5760   -0.3580 C   0  0  2  0  0  0  0  0  0  0  0  0
   -0.3040   15.3580    0.4130 C   0  0  0  0  0  0  0  0  0  0  0  0
   -0.4780   16.7820   -0.0030 C   0  0  0  0  0  0  0  0  0  0  0  0
    0.3860   17.4890   -0.7530 C   0  0  0  0  0  0  0  0  0  0  0  0
    1.7300   16.8880   -1.1840 C   0  0  1  0  0  0  0  0  0  0  0  0
    2.8620   17.9190   -0.9350 C   0  0  0  0  0  0  0  0  0  0  0  0
    2.5850   19.2640   -1.6000 C   0  0  0  0  0  0  0  0  0  0  0  0
    1.2690   19.8570   -1.1030 C   0  0  2  0  0  0  0  0  0  0  0  0
    1.4080   20.1900    0.2820 O   0  0  0  0  0  0  0  0  0  0  0  0
    0.0570   18.9030   -1.2920 C   0  0  0  0  0  0  0  0  0  0  0  0
   -0.2800   18.7820   -2.7990 C   0  0  0  0  0  0  0  0  0  0  0  0
   -1.1790   19.5630   -0.6230 C   0  0  0  0  0  0  0  0  0  0  0  0
    2.0700   15.4530   -0.5900 C   0  0  1  0  0  0  0  0  0  0  0  0
    2.7610   15.6030    0.8000 C   0  0  0  0  0  0  0  0  0  0  0  0
    3.1140   14.7420   -1.5300 C   0  0  0  0  0  0  0  0  0  0  0  0
    2.5460   13.9250   -2.7060 C   0  0  0  0  0  0  0  0  0  0  0  0
    1.4420   12.9750   -2.2320 C   0  0  2  0  0  0  0  0  0  0  0  0
    2.0840   11.9590   -1.2280 C   0  0  0  0  0  0  0  0  0  0  0  0
   -0.1673    9.5046   -3.8593 H   0  0  0  0  0  0  0  0  0  0  0  0
   -0.2548   10.6437   -5.2455 H   0  0  0  0  0  0  0  0  0  0  0  0
    0.9602    9.3207   -5.2455 H   0  0  0  0  0  0  0  0  0  0  0  0
    2.1452   11.3053   -4.6816 H   0  0  0  0  0  0  0  0  0  0  0  0
    2.2050   10.8525   -1.9128 H   0  0  0  0  0  0  0  0  0  0  0  0
    1.7400    9.2569   -2.6748 H   0  0  0  0  0  0  0  0  0  0  0  0
    4.2844    9.9287   -2.2790 H   0  0  0  0  0  0  0  0  0  0  0  0
    3.7246    9.0052   -3.7354 H   0  0  0  0  0  0  0  0  0  0  0  0
    3.4326   11.7255   -3.7968 H   0  0  0  0  0  0  0  0  0  0  0  0
    6.6488   10.4280   -2.6143 H   0  0  0  0  0  0  0  0  0  0  0  0
    6.5777    9.3086   -4.0174 H   0  0  0  0  0  0  0  0  0  0  0  0
    7.7427   10.6760   -4.0174 H   0  0  0  0  0  0  0  0  0  0  0  0
    6.4085   13.2068   -3.9736 H   0  0  0  0  0  0  0  0  0  0  0  0
    7.0889   12.4352   -5.4461 H   0  0  0  0  0  0  0  0  0  0  0  0
    5.3946   13.0320   -5.4461 H   0  0  0  0  0  0  0  0  0  0  0  0
    0.5841   12.7819   -4.2330 H   0  0  0  0  0  0  0  0  0  0  0  0
   -1.4737   11.9065   -3.3200 H   0  0  0  0  0  0  0  0  0  0  0  0
   -0.6131   10.7263   -2.3082 H   0  0  0  0  0  0  0  0  0  0  0  0
   -1.8017   13.1546   -1.3833 H   0  0  0  0  0  0  0  0  0  0  0  0
   -0.6464   12.2032   -0.4537 H   0  0  0  0  0  0  0  0  0  0  0  0
   -0.9286   15.6078   -2.0990 H   0  0  0  0  0  0  0  0  0  0  0  0
    0.3803   15.2717   -3.2825 H   0  0  0  0  0  0  0  0  0  0  0  0
   -1.1099   14.2687   -3.2825 H   0  0  0  0  0  0  0  0  0  0  0  0
    1.0661   13.7434    0.2988 H   0  0  0  0  0  0  0  0  0  0  0  0
   -1.2652   14.8423    0.2709 H   0  0  0  0  0  0  0  0  0  0  0  0
    0.0301   15.3852    1.4607 H   0  0  0  0  0  0  0  0  0  0  0  0
   -1.3906   17.2963    0.3327 H   0  0  0  0  0  0  0  0  0  0  0  0
    1.6408   16.6847   -2.2614 H   0  0  0  0  0  0  0  0  0  0  0  0
    2.9639   18.0759    0.1490 H   0  0  0  0  0  0  0  0  0  0  0  0
    3.7855   17.5134   -1.3739 H   0  0  0  0  0  0  0  0  0  0  0  0
    3.4048   19.9582   -1.3636 H   0  0  0  0  0  0  0  0  0  0  0  0
    2.5129   19.1103   -2.6868 H   0  0  0  0  0  0  0  0  0  0  0  0
    1.0607   20.7517   -1.7081 H   0  0  0  0  0  0  0  0  0  0  0  0
    2.3130   19.9570    0.5510 H   0  0  0  0  0  0  0  0  0  0  0  0
   -1.3094   18.4124   -2.9160 H   0  0  0  0  0  0  0  0  0  0  0  0
   -0.1885   19.7692   -3.2756 H   0  0  0  0  0  0  0  0  0  0  0  0
    0.4186   18.0785   -3.2756 H   0  0  0  0  0  0  0  0  0  0  0  0
   -1.0767   19.5084    0.4709 H   0  0  0  0  0  0  0  0  0  0  0  0
   -1.2449   20.6164   -0.9330 H   0  0  0  0  0  0  0  0  0  0  0  0
   -2.0910   19.0318   -0.9330 H   0  0  0  0  0  0  0  0  0  0  0  0
    2.0201   15.4422    1.5970 H   0  0  0  0  0  0  0  0  0  0  0  0
    3.5657   14.8586    0.8917 H   0  0  0  0  0  0  0  0  0  0  0  0
    3.1846   16.6140    0.8917 H   0  0  0  0  0  0  0  0  0  0  0  0
    3.7675   15.5205   -1.9505 H   0  0  0  0  0  0  0  0  0  0  0  0
    3.6249   14.0079   -0.8896 H   0  0  0  0  0  0  0  0  0  0  0  0
    2.1300   14.6146   -3.4553 H   0  0  0  0  0  0  0  0  0  0  0  0
    3.3595   13.3268   -3.1423 H   0  0  0  0  0  0  0  0  0  0  0  0
    1.8791   12.2832   -0.1970 H   0  0  0  0  0  0  0  0  0  0  0  0
    1.6526   10.9603   -1.3909 H   0  0  0  0  0  0  0  0  0  0  0  0
    3.1712   11.9198   -1.3909 H   0  0  0  0  0  0  0  0  0  0  0  0
  1  2  1  0
  2  3  1  0
  3  4  1  0
  4  5  1  0
  5  6  1  0
  6  7  1  0
  7  8  1  0
  7  9  1  0
  2 10  1  0
 10 11  1  0
 11 12  1  0
 12 13  1  0
 13 14  1  6
 13 15  1  0
 15 16  1  0
 16 17  1  0
 17 18  2  0
 18 19  1  0
 19 20  1  0
 20 21  1  0
 21 22  1  0
 22 23  1  0
 22 24  1  0
 24 25  1  0
 24 26  1  0
 19 27  1  0
 27 28  1  1
 27 29  1  0
 29 30  1  0
 30 31  1  0
 31 32  1  1
  7  5  1  0
 31 10  1  0
 31 13  1  0
 27 15  1  0
 24 18  1  0
  1 33  1  0
  1 34  1  0
  1 35  1  0
  2 36  1  6
  3 37  1  0
  3 38  1  0
  4 39  1  0
  4 40  1  0
  5 41  1  6
  8 42  1  0
  8 43  1  0
  8 44  1  0
  9 45  1  0
  9 46  1  0
  9 47  1  0
 10 48  1  6
 11 49  1  0
 11 50  1  0
 12 51  1  0
 12 52  1  0
 14 53  1  0
 14 54  1  0
 14 55  1  0
 15 56  1  1
 16 57  1  0
 16 58  1  0
 17 59  1  0
 19 60  1  6
 20 61  1  0
 20 62  1  0
 21 63  1  0
 21 64  1  0
 22 65  1  6
 23 66  1  0
 25 67  1  0
 25 68  1  0
 25 69  1  0
 26 70  1  0
 26 71  1  0
 26 72  1  0
 28 73  1  0
 28 74  1  0
 28 75  1  0
 29 76  1  0
 29 77  1  0
 30 78  1  0
 30 79  1  0
 32 80  1  0
 32 81  1  0
 32 82  1  0
M  END
>  <meeko>  (17) 
{"is_sidechain": [false], "intermolecular_energy": 2.731, "internal_energy": -0.839}

$$$$
EPH_relaxed_0001_pdb2pqr_Repair_351_r2_0001_out
     RDKit          3D

 82 86  0  0  0  0  0  0  0  0999 V2000
   -1.3850   16.4410   -6.0060 C   0  0  0  0  0  0  0  0  0  0  0  0
   -0.1300   15.8410   -6.6470 C   0  0  2  0  0  0  0  0  0  0  0  0
   -0.3510   15.4810   -8.1300 C   0  0  0  0  0  0  0  0  0  0  0  0
    0.2850   16.4750   -9.1060 C   0  0  0  0  0  0  0  0  0  0  0  0
    1.7100   16.1210   -9.4070 C   0  0  2  0  0  0  0  0  0  0  0  0
    2.2340   16.7150  -10.6020 O   0  0  0  0  0  0  0  0  0  0  0  0
    2.1300   15.2820  -10.6000 C   0  0  0  0  0  0  0  0  0  0  0  0
    1.1230   14.7440  -11.5680 C   0  0  0  0  0  0  0  0  0  0  0  0
    3.4510   14.5810  -10.5520 C   0  0  0  0  0  0  0  0  0  0  0  0
    0.3100   14.6060   -5.8700 C   0  0  1  0  0  0  0  0  0  0  0  0
    1.3790   13.7730   -6.6280 C   0  0  0  0  0  0  0  0  0  0  0  0
    2.3310   13.1860   -5.5550 C   0  0  0  0  0  0  0  0  0  0  0  0
    1.5980   13.4190   -4.2130 C   0  0  1  0  0  0  0  0  0  0  0  0
    0.5640   12.2540   -4.1140 C   0  0  0  0  0  0  0  0  0  0  0  0
    2.4990   13.5000   -2.9380 C   0  0  2  0  0  0  0  0  0  0  0  0
    3.2910   12.2210   -2.6150 C   0  0  0  0  0  0  0  0  0  0  0  0
    2.5960   11.2500   -1.7190 C   0  0  0  0  0  0  0  0  0  0  0  0
    1.5130   11.5180   -0.9660 C   0  0  0  0  0  0  0  0  0  0  0  0
    0.9340   12.9360   -0.8950 C   0  0  1  0  0  0  0  0  0  0  0  0
    0.6470   13.3050    0.5840 C   0  0  0  0  0  0  0  0  0  0  0  0
   -0.2380   12.2780    1.2820 C   0  0  0  0  0  0  0  0  0  0  0  0
    0.3990   10.8910    1.2410 C   0  0  2  0  0  0  0  0  0  0  0  0
    1.5870   10.9060    2.0390 O   0  0  0  0  0  0  0  0  0  0  0  0
    0.7410   10.4160   -0.1980 C   0  0  0  0  0  0  0  0  0  0  0  0
   -0.5670   10.1110   -0.9700 C   0  0  0  0  0  0  0  0  0  0  0  0
    1.5050    9.0690   -0.0880 C   0  0  0  0  0  0  0  0  0  0  0  0
    1.7590   14.0610   -1.6560 C   0  0  1  0  0  0  0  0  0  0  0  0
    2.8660   14.6350   -0.7190 C   0  0  0  0  0  0  0  0  0  0  0  0
    0.8000   15.2620   -1.9970 C   0  0  0  0  0  0  0  0  0  0  0  0
    0.0270   15.1790   -3.3270 C   0  0  0  0  0  0  0  0  0  0  0  0
    0.9670   14.8330   -4.4860 C   0  0  2  0  0  0  0  0  0  0  0  0
    2.0050   15.9980   -4.6240 C   0  0  0  0  0  0  0  0  0  0  0  0
   -1.2939   16.3974   -4.9106 H   0  0  0  0  0  0  0  0  0  0  0  0
   -1.4938   17.4885   -6.3235 H   0  0  0  0  0  0  0  0  0  0  0  0
   -2.2686   15.8679   -6.3235 H   0  0  0  0  0  0  0  0  0  0  0  0
    0.6601   16.6054   -6.6079 H   0  0  0  0  0  0  0  0  0  0  0  0
    0.0829   14.4872   -8.3145 H   0  0  0  0  0  0  0  0  0  0  0  0
   -1.4362   15.5048   -8.3084 H   0  0  0  0  0  0  0  0  0  0  0  0
   -0.2893   16.4706  -10.0442 H   0  0  0  0  0  0  0  0  0  0  0  0
    0.2701   17.4711   -8.6396 H   0  0  0  0  0  0  0  0  0  0  0  0
    1.9432   16.0471   -8.3345 H   0  0  0  0  0  0  0  0  0  0  0  0
    0.2848   14.2962  -11.0141 H   0  0  0  0  0  0  0  0  0  0  0  0
    0.7489   15.5624  -12.2006 H   0  0  0  0  0  0  0  0  0  0  0  0
    1.5953   13.9781  -12.2006 H   0  0  0  0  0  0  0  0  0  0  0  0
    3.7453   14.4248   -9.5037 H   0  0  0  0  0  0  0  0  0  0  0  0
    3.3684   13.6081  -11.0585 H   0  0  0  0  0  0  0  0  0  0  0  0
    4.2104   15.1948  -11.0585 H   0  0  0  0  0  0  0  0  0  0  0  0
   -0.6636   14.1091   -5.7467 H   0  0  0  0  0  0  0  0  0  0  0  0
    0.8968   12.9608   -7.1918 H   0  0  0  0  0  0  0  0  0  0  0  0
    1.9303   14.3975   -7.3464 H   0  0  0  0  0  0  0  0  0  0  0  0
    2.4944   12.1118   -5.7268 H   0  0  0  0  0  0  0  0  0  0  0  0
    3.3241   13.6586   -5.5752 H   0  0  0  0  0  0  0  0  0  0  0  0
    0.3648   12.0295   -3.0557 H   0  0  0  0  0  0  0  0  0  0  0  0
   -0.3725   12.5519   -4.6082 H   0  0  0  0  0  0  0  0  0  0  0  0
    0.9710   11.3595   -4.6082 H   0  0  0  0  0  0  0  0  0  0  0  0
    3.2496   14.2501   -3.2277 H   0  0  0  0  0  0  0  0  0  0  0  0
    3.5126   11.7098   -3.5634 H   0  0  0  0  0  0  0  0  0  0  0  0
    4.1891   12.5484   -2.0707 H   0  0  0  0  0  0  0  0  0  0  0  0
    3.0033   10.2294   -1.6700 H   0  0  0  0  0  0  0  0  0  0  0  0
   -0.0082   12.9082   -1.4620 H   0  0  0  0  0  0  0  0  0  0  0  0
    1.6036   13.3705    1.1231 H   0  0  0  0  0  0  0  0  0  0  0  0
    0.1119   14.2661    0.5904 H   0  0  0  0  0  0  0  0  0  0  0  0
   -0.3796   12.5783    2.3307 H   0  0  0  0  0  0  0  0  0  0  0  0
   -1.2054   12.2356    0.7601 H   0  0  0  0  0  0  0  0  0  0  0  0
   -0.3376   10.1775    1.6388 H   0  0  0  0  0  0  0  0  0  0  0  0
    2.3230   11.1770    1.4640 H   0  0  0  0  0  0  0  0  0  0  0  0
   -1.3799    9.9214   -0.2536 H   0  0  0  0  0  0  0  0  0  0  0  0
   -0.8289   10.9722   -1.6023 H   0  0  0  0  0  0  0  0  0  0  0  0
   -0.4210    9.2228   -1.6023 H   0  0  0  0  0  0  0  0  0  0  0  0
    1.6492    8.8148    0.9725 H   0  0  0  0  0  0  0  0  0  0  0  0
    0.9223    8.2758   -0.5793 H   0  0  0  0  0  0  0  0  0  0  0  0
    2.4848    9.1620   -0.5793 H   0  0  0  0  0  0  0  0  0  0  0  0
    2.5731   14.4832    0.3304 H   0  0  0  0  0  0  0  0  0  0  0  0
    3.8162   14.1160   -0.9133 H   0  0  0  0  0  0  0  0  0  0  0  0
    2.9893   15.7107   -0.9133 H   0  0  0  0  0  0  0  0  0  0  0  0
    0.0601   15.3373   -1.1865 H   0  0  0  0  0  0  0  0  0  0  0  0
    1.4599   16.1357   -2.1022 H   0  0  0  0  0  0  0  0  0  0  0  0
   -0.7462   14.4008   -3.2460 H   0  0  0  0  0  0  0  0  0  0  0  0
   -0.4323   16.1582   -3.5278 H   0  0  0  0  0  0  0  0  0  0  0  0
    2.3087   16.3389   -3.6232 H   0  0  0  0  0  0  0  0  0  0  0  0
    2.8882   15.6391   -5.1728 H   0  0  0  0  0  0  0  0  0  0  0  0
    1.5470   16.8341   -5.1728 H   0  0  0  0  0  0  0  0  0  0  0  0
  1  2  1  0
  2  3  1  0
  3  4  1  0
  4  5  1  0
  5  6  1  0
  6  7  1  0
  7  8  1  0
  7  9  1  0
  2 10  1  0
 10 11  1  0
 11 12  1  0
 12 13  1  0
 13 14  1  1
 13 15  1  0
 15 16  1  0
 16 17  1  0
 17 18  2  0
 18 19  1  0
 19 20  1  0
 20 21  1  0
 21 22  1  0
 22 23  1  0
 22 24  1  0
 24 25  1  0
 24 26  1  0
 19 27  1  0
 27 28  1  1
 27 29  1  0
 29 30  1  0
 30 31  1  0
 31 32  1  6
  7  5  1  0
 31 10  1  0
 31 13  1  0
 27 15  1  0
 24 18  1  0
  1 33  1  0
  1 34  1  0
  1 35  1  0
  2 36  1  6
  3 37  1  0
  3 38  1  0
  4 39  1  0
  4 40  1  0
  5 41  1  1
  8 42  1  0
  8 43  1  0
  8 44  1  0
  9 45  1  0
  9 46  1  0
  9 47  1  0
 10 48  1  1
 11 49  1  0
 11 50  1  0
 12 51  1  0
 12 52  1  0
 14 53  1  0
 14 54  1  0
 14 55  1  0
 15 56  1  6
 16 57  1  0
 16 58  1  0
 17 59  1  0
 19 60  1  6
 20 61  1  0
 20 62  1  0
 21 63  1  0
 21 64  1  0
 22 65  1  1
 23 66  1  0
 25 67  1  0
 25 68  1  0
 25 69  1  0
 26 70  1  0
 26 71  1  0
 26 72  1  0
 28 73  1  0
 28 74  1  0
 28 75  1  0
 29 76  1  0
 29 77  1  0
 30 78  1  0
 30 79  1  0
 32 80  1  0
 32 81  1  0
 32 82  1  0
M  END
>  <meeko>  (18) 
{"is_sidechain": [false], "intermolecular_energy": 2.731, "internal_energy": -0.839}

$$$$
EPH_relaxed_0001_pdb2pqr_Repair_351_r2_0001_out
     RDKit          3D

 82 86  0  0  0  0  0  0  0  0999 V2000
  -15.2870    8.6160    0.3270 C   0  0  0  0  0  0  0  0  0  0  0  0
  -14.4030    9.0130   -0.8580 C   0  0  2  0  0  0  0  0  0  0  0  0
  -14.6640    8.1340   -2.0980 C   0  0  0  0  0  0  0  0  0  0  0  0
  -14.6290    8.9070   -3.4190 C   0  0  0  0  0  0  0  0  0  0  0  0
  -15.2840   10.2490   -3.2930 C   0  0  2  0  0  0  0  0  0  0  0  0
  -14.9200   11.1900   -4.3110 O   0  0  0  0  0  0  0  0  0  0  0  0
  -14.5260   11.5230   -2.9700 C   0  0  0  0  0  0  0  0  0  0  0  0
  -13.0460   11.5160   -2.7510 C   0  0  0  0  0  0  0  0  0  0  0  0
  -15.2820   12.6770   -2.3890 C   0  0  0  0  0  0  0  0  0  0  0  0
  -12.9340    8.9300   -0.4610 C   0  0  1  0  0  0  0  0  0  0  0  0
  -12.7220    9.0370    1.0730 C   0  0  0  0  0  0  0  0  0  0  0  0
  -11.5220    8.1200    1.4240 C   0  0  0  0  0  0  0  0  0  0  0  0
  -10.8790    7.7800    0.0590 C   0  0  1  0  0  0  0  0  0  0  0  0
   -9.9940    9.0180   -0.2860 C   0  0  0  0  0  0  0  0  0  0  0  0
  -10.0610    6.4490   -0.0070 C   0  0  2  0  0  0  0  0  0  0  0  0
   -8.8290    6.3940    0.9140 C   0  0  0  0  0  0  0  0  0  0  0  0
   -7.5550    6.8780    0.3050 C   0  0  0  0  0  0  0  0  0  0  0  0
   -7.3410    7.0720   -1.0100 C   0  0  0  0  0  0  0  0  0  0  0  0
   -8.4110    6.7030   -2.0450 C   0  0  1  0  0  0  0  0  0  0  0  0
   -7.7540    5.9180   -3.2110 C   0  0  0  0  0  0  0  0  0  0  0  0
   -6.5770    6.6660   -3.8300 C   0  0  0  0  0  0  0  0  0  0  0  0
   -5.5080    6.9640   -2.7810 C   0  0  2  0  0  0  0  0  0  0  0  0
   -4.9300    5.7290   -2.3490 O   0  0  0  0  0  0  0  0  0  0  0  0
   -6.0560    7.7440   -1.5530 C   0  0  0  0  0  0  0  0  0  0  0  0
   -6.4040    9.1940   -1.9700 C   0  0  0  0  0  0  0  0  0  0  0  0
   -4.9110    7.8550   -0.5100 C   0  0  0  0  0  0  0  0  0  0  0  0
   -9.7060    5.9790   -1.4760 C   0  0  1  0  0  0  0  0  0  0  0  0
   -9.4670    4.4390   -1.4050 C   0  0  0  0  0  0  0  0  0  0  0  0
  -10.9000    6.1970   -2.4790 C   0  0  0  0  0  0  0  0  0  0  0  0
  -11.7440    7.4710   -2.2870 C   0  0  0  0  0  0  0  0  0  0  0  0
  -12.1710    7.6320   -0.8250 C   0  0  2  0  0  0  0  0  0  0  0  0
  -13.0810    6.4110   -0.4550 C   0  0  0  0  0  0  0  0  0  0  0  0
  -14.7664    8.8498    1.2674 H   0  0  0  0  0  0  0  0  0  0  0  0
  -16.2329    9.1758    0.2826 H   0  0  0  0  0  0  0  0  0  0  0  0
  -15.4970    7.5371    0.2826 H   0  0  0  0  0  0  0  0  0  0  0  0
  -14.6575   10.0485   -1.1282 H   0  0  0  0  0  0  0  0  0  0  0  0
  -13.8949    7.3484   -2.1349 H   0  0  0  0  0  0  0  0  0  0  0  0
  -15.6790    7.7232   -1.9928 H   0  0  0  0  0  0  0  0  0  0  0  0
  -13.5810    9.0488   -3.7215 H   0  0  0  0  0  0  0  0  0  0  0  0
  -15.1811    8.3251   -4.1717 H   0  0  0  0  0  0  0  0  0  0  0  0
  -16.1842    9.7948   -2.8534 H   0  0  0  0  0  0  0  0  0  0  0  0
  -12.8351   11.5150   -1.6714 H   0  0  0  0  0  0  0  0  0  0  0  0
  -12.6116   10.6158   -3.2103 H   0  0  0  0  0  0  0  0  0  0  0  0
  -12.6031   12.4121   -3.2103 H   0  0  0  0  0  0  0  0  0  0  0  0
  -15.2466   12.6230   -1.2909 H   0  0  0  0  0  0  0  0  0  0  0  0
  -14.8262   13.6202   -2.7246 H   0  0  0  0  0  0  0  0  0  0  0  0
  -16.3288   12.6358   -2.7246 H   0  0  0  0  0  0  0  0  0  0  0  0
  -12.5381    9.7749   -1.0436 H   0  0  0  0  0  0  0  0  0  0  0  0
  -12.4985   10.0771    1.3528 H   0  0  0  0  0  0  0  0  0  0  0  0
  -13.6263    8.7302    1.6189 H   0  0  0  0  0  0  0  0  0  0  0  0
  -10.8054    8.6483    2.0701 H   0  0  0  0  0  0  0  0  0  0  0  0
  -11.8318    7.2199    1.9751 H   0  0  0  0  0  0  0  0  0  0  0  0
   -9.6527    9.4954    0.6444 H   0  0  0  0  0  0  0  0  0  0  0  0
   -9.1221    8.6933   -0.8728 H   0  0  0  0  0  0  0  0  0  0  0  0
  -10.5834    9.7380   -0.8728 H   0  0  0  0  0  0  0  0  0  0  0  0
  -10.7714    5.7146    0.4003 H   0  0  0  0  0  0  0  0  0  0  0  0
   -9.0388    7.0121    1.7994 H   0  0  0  0  0  0  0  0  0  0  0  0
   -8.6703    5.3306    1.1464 H   0  0  0  0  0  0  0  0  0  0  0  0
   -6.7206    7.0944    0.9883 H   0  0  0  0  0  0  0  0  0  0  0  0
   -8.8156    7.6559   -2.4170 H   0  0  0  0  0  0  0  0  0  0  0  0
   -7.3951    4.9516   -2.8273 H   0  0  0  0  0  0  0  0  0  0  0  0
   -8.5146    5.7854   -3.9945 H   0  0  0  0  0  0  0  0  0  0  0  0
   -6.1371    6.0487   -4.6271 H   0  0  0  0  0  0  0  0  0  0  0  0
   -6.9427    7.6192   -4.2396 H   0  0  0  0  0  0  0  0  0  0  0  0
   -4.7538    7.6116   -3.2520 H   0  0  0  0  0  0  0  0  0  0  0  0
   -4.0440    5.9250   -2.0000 H   0  0  0  0  0  0  0  0  0  0  0  0
   -6.5516    9.8090   -1.0700 H   0  0  0  0  0  0  0  0  0  0  0  0
   -5.5805    9.6112   -2.5681 H   0  0  0  0  0  0  0  0  0  0  0  0
   -7.3272    9.1920   -2.5681 H   0  0  0  0  0  0  0  0  0  0  0  0
   -5.3340    7.8140    0.5046 H   0  0  0  0  0  0  0  0  0  0  0  0
   -4.2073    7.0209   -0.6479 H   0  0  0  0  0  0  0  0  0  0  0  0
   -4.3806    8.8088   -0.6479 H   0  0  0  0  0  0  0  0  0  0  0  0
   -9.4181    4.1237   -0.3523 H   0  0  0  0  0  0  0  0  0  0  0  0
  -10.2947    3.9160   -1.9063 H   0  0  0  0  0  0  0  0  0  0  0  0
   -8.5197    4.1915   -1.9063 H   0  0  0  0  0  0  0  0  0  0  0  0
  -10.4800    6.2260   -3.4952 H   0  0  0  0  0  0  0  0  0  0  0  0
  -11.5911    5.3624   -2.2897 H   0  0  0  0  0  0  0  0  0  0  0  0
  -11.1478    8.3458   -2.5859 H   0  0  0  0  0  0  0  0  0  0  0  0
  -12.6477    7.3894   -2.9088 H   0  0  0  0  0  0  0  0  0  0  0  0
  -13.1476    6.3216    0.6393 H   0  0  0  0  0  0  0  0  0  0  0  0
  -14.0872    6.5639   -0.8723 H   0  0  0  0  0  0  0  0  0  0  0  0
  -12.6469    5.4904   -0.8723 H   0  0  0  0  0  0  0  0  0  0  0  0
  1  2  1  0
  2  3  1  0
  3  4  1  0
  4  5  1  0
  5  6  1  0
  6  7  1  0
  7  8  1  0
  7  9  1  0
  2 10  1  0
 10 11  1  0
 11 12  1  0
 12 13  1  0
 13 14  1  6
 13 15  1  0
 15 16  1  0
 16 17  1  0
 17 18  2  0
 18 19  1  0
 19 20  1  0
 20 21  1  0
 21 22  1  0
 22 23  1  0
 22 24  1  0
 24 25  1  0
 24 26  1  0
 19 27  1  0
 27 28  1  1
 27 29  1  0
 29 30  1  0
 30 31  1  0
 31 32  1  1
  7  5  1  0
 31 10  1  0
 31 13  1  0
 27 15  1  0
 24 18  1  0
  1 33  1  0
  1 34  1  0
  1 35  1  0
  2 36  1  6
  3 37  1  0
  3 38  1  0
  4 39  1  0
  4 40  1  0
  5 41  1  1
  8 42  1  0
  8 43  1  0
  8 44  1  0
  9 45  1  0
  9 46  1  0
  9 47  1  0
 10 48  1  6
 11 49  1  0
 11 50  1  0
 12 51  1  0
 12 52  1  0
 14 53  1  0
 14 54  1  0
 14 55  1  0
 15 56  1  1
 16 57  1  0
 16 58  1  0
 17 59  1  0
 19 60  1  6
 20 61  1  0
 20 62  1  0
 21 63  1  0
 21 64  1  0
 22 65  1  6
 23 66  1  0
 25 67  1  0
 25 68  1  0
 25 69  1  0
 26 70  1  0
 26 71  1  0
 26 72  1  0
 28 73  1  0
 28 74  1  0
 28 75  1  0
 29 76  1  0
 29 77  1  0
 30 78  1  0
 30 79  1  0
 32 80  1  0
 32 81  1  0
 32 82  1  0
M  END
>  <meeko>  (19) 
{"is_sidechain": [false], "intermolecular_energy": 2.731, "internal_energy": -0.839}

$$$$
