EPH_relaxed_0001_pdb2pqr_Repair_89_r2_0001_out
     RDKit          3D

 82 86  0  0  0  0  0  0  0  0999 V2000
   -1.4560    8.5480   -1.7600 C   0  0  0  0  0  0  0  0  0  0  0  0
   -1.8710    9.1530   -0.4150 C   0  0  2  0  0  0  0  0  0  0  0  0
   -3.3600    9.5510   -0.3930 C   0  0  0  0  0  0  0  0  0  0  0  0
   -4.3150    8.3590   -0.2900 C   0  0  0  0  0  0  0  0  0  0  0  0
   -4.9930    8.0780   -1.5960 C   0  0  2  0  0  0  0  0  0  0  0  0
   -6.4250    8.1190   -1.5480 O   0  0  0  0  0  0  0  0  0  0  0  0
   -5.8370    6.8430   -1.8520 C   0  0  0  0  0  0  0  0  0  0  0  0
   -6.0470    5.8080   -0.7920 C   0  0  0  0  0  0  0  0  0  0  0  0
   -6.0510    6.4030   -3.2670 C   0  0  0  0  0  0  0  0  0  0  0  0
   -1.0020   10.3650   -0.1010 C   0  0  1  0  0  0  0  0  0  0  0  0
    0.1070   10.0520    0.9390 C   0  0  0  0  0  0  0  0  0  0  0  0
    1.3430   10.9000    0.5440 C   0  0  0  0  0  0  0  0  0  0  0  0
    0.8060   11.9110   -0.4960 C   0  0  1  0  0  0  0  0  0  0  0  0
    0.1420   13.0430    0.3500 C   0  0  0  0  0  0  0  0  0  0  0  0
    1.8520   12.4840   -1.5070 C   0  0  2  0  0  0  0  0  0  0  0  0
    2.9920   13.3010   -0.8740 C   0  0  0  0  0  0  0  0  0  0  0  0
    2.7320   14.7650   -0.7450 C   0  0  0  0  0  0  0  0  0  0  0  0
    1.7560   15.4450   -1.3750 C   0  0  0  0  0  0  0  0  0  0  0  0
    0.8460   14.7510   -2.3970 C   0  0  1  0  0  0  0  0  0  0  0  0
    0.7220   15.6370   -3.6650 C   0  0  0  0  0  0  0  0  0  0  0  0
    0.2620   17.0560   -3.3440 C   0  0  0  0  0  0  0  0  0  0  0  0
    1.2230   17.7330   -2.3700 C   0  0  2  0  0  0  0  0  0  0  0  0
    2.4810   17.9280   -3.0230 O   0  0  0  0  0  0  0  0  0  0  0  0
    1.4350   16.9260   -1.0580 C   0  0  0  0  0  0  0  0  0  0  0  0
    0.1440   16.9720   -0.2040 C   0  0  0  0  0  0  0  0  0  0  0  0
    2.5310   17.6460   -0.2270 C   0  0  0  0  0  0  0  0  0  0  0  0
    1.2130   13.2430   -2.7400 C   0  0  1  0  0  0  0  0  0  0  0  0
    2.2710   13.2000   -3.8860 C   0  0  0  0  0  0  0  0  0  0  0  0
   -0.0690   12.5150   -3.2920 C   0  0  0  0  0  0  0  0  0  0  0  0
   -1.0010   11.8650   -2.2520 C   0  0  0  0  0  0  0  0  0  0  0  0
   -0.2080   10.9940   -1.2730 C   0  0  2  0  0  0  0  0  0  0  0  0
    0.4530    9.8340   -2.0930 C   0  0  0  0  0  0  0  0  0  0  0  0
   -0.8417    7.6524   -1.5853 H   0  0  0  0  0  0  0  0  0  0  0  0
   -2.3548    8.2706   -2.3302 H   0  0  0  0  0  0  0  0  0  0  0  0
   -0.8735    9.2867   -2.3302 H   0  0  0  0  0  0  0  0  0  0  0  0
   -1.7247    8.3815    0.3553 H   0  0  0  0  0  0  0  0  0  0  0  0
   -3.5308   10.2084    0.4722 H   0  0  0  0  0  0  0  0  0  0  0  0
   -3.5728   10.0512   -1.3493 H   0  0  0  0  0  0  0  0  0  0  0  0
   -3.7435    7.4695    0.0137 H   0  0  0  0  0  0  0  0  0  0  0  0
   -5.0889    8.6027    0.4528 H   0  0  0  0  0  0  0  0  0  0  0  0
   -4.1591    8.5300   -2.1531 H   0  0  0  0  0  0  0  0  0  0  0  0
   -5.9524    6.2744    0.1997 H   0  0  0  0  0  0  0  0  0  0  0  0
   -7.0517    5.3730   -0.8982 H   0  0  0  0  0  0  0  0  0  0  0  0
   -5.2913    5.0158   -0.8982 H   0  0  0  0  0  0  0  0  0  0  0  0
   -6.5321    5.4138   -3.2746 H   0  0  0  0  0  0  0  0  0  0  0  0
   -6.6967    7.1288   -3.7830 H   0  0  0  0  0  0  0  0  0  0  0  0
   -5.0814    6.3431   -3.7830 H   0  0  0  0  0  0  0  0  0  0  0  0
   -1.7783   11.0634    0.2448 H   0  0  0  0  0  0  0  0  0  0  0  0
   -0.2328   10.3253    1.9489 H   0  0  0  0  0  0  0  0  0  0  0  0
    0.3501    8.9792    0.9463 H   0  0  0  0  0  0  0  0  0  0  0  0
    1.7505   11.4244    1.4209 H   0  0  0  0  0  0  0  0  0  0  0  0
    2.1610   10.2836    0.1429 H   0  0  0  0  0  0  0  0  0  0  0  0
    0.2704   12.8241    1.4203 H   0  0  0  0  0  0  0  0  0  0  0  0
    0.6186   14.0056    0.1128 H   0  0  0  0  0  0  0  0  0  0  0  0
   -0.9308   13.0967    0.1128 H   0  0  0  0  0  0  0  0  0  0  0  0
    2.3223   11.5715   -1.9022 H   0  0  0  0  0  0  0  0  0  0  0  0
    3.1797   12.8992    0.1326 H   0  0  0  0  0  0  0  0  0  0  0  0
    3.8506   13.2033   -1.5547 H   0  0  0  0  0  0  0  0  0  0  0  0
    3.3943   15.3369   -0.0784 H   0  0  0  0  0  0  0  0  0  0  0  0
   -0.1367   14.6526   -1.9126 H   0  0  0  0  0  0  0  0  0  0  0  0
    1.7043   15.6876   -4.1574 H   0  0  0  0  0  0  0  0  0  0  0  0
   -0.0354   15.1802   -4.3190 H   0  0  0  0  0  0  0  0  0  0  0  0
    0.2215   17.6407   -4.2749 H   0  0  0  0  0  0  0  0  0  0  0  0
   -0.7332   17.0059   -2.8781 H   0  0  0  0  0  0  0  0  0  0  0  0
    0.7739   18.6939   -2.0785 H   0  0  0  0  0  0  0  0  0  0  0  0
    2.9050   17.0580   -3.1100 H   0  0  0  0  0  0  0  0  0  0  0  0
    0.4099   16.9625    0.8633 H   0  0  0  0  0  0  0  0  0  0  0  0
   -0.4155   17.8906   -0.4344 H   0  0  0  0  0  0  0  0  0  0  0  0
   -0.4794   16.0955   -0.4344 H   0  0  0  0  0  0  0  0  0  0  0  0
    2.3259   17.5113    0.8453 H   0  0  0  0  0  0  0  0  0  0  0  0
    3.5150   17.2178   -0.4687 H   0  0  0  0  0  0  0  0  0  0  0  0
    2.5287   18.7191   -0.4687 H   0  0  0  0  0  0  0  0  0  0  0  0
    3.2807   13.1590   -3.4515 H   0  0  0  0  0  0  0  0  0  0  0  0
    2.1026   12.3080   -4.5072 H   0  0  0  0  0  0  0  0  0  0  0  0
    2.1756   14.1028   -4.5072 H   0  0  0  0  0  0  0  0  0  0  0  0
   -0.6590   13.2573   -3.8496 H   0  0  0  0  0  0  0  0  0  0  0  0
    0.3128   11.6800   -3.8978 H   0  0  0  0  0  0  0  0  0  0  0  0
   -1.5205   12.6556   -1.6907 H   0  0  0  0  0  0  0  0  0  0  0  0
   -1.7255   11.2279   -2.7803 H   0  0  0  0  0  0  0  0  0  0  0  0
    0.8764    9.0910   -1.4012 H   0  0  0  0  0  0  0  0  0  0  0  0
   -0.3070    9.3537   -2.7268 H   0  0  0  0  0  0  0  0  0  0  0  0
    1.2537   10.2430   -2.7268 H   0  0  0  0  0  0  0  0  0  0  0  0
  1  2  1  0
  2  3  1  0
  3  4  1  0
  4  5  1  0
  5  6  1  0
  6  7  1  0
  7  8  1  0
  7  9  1  0
  2 10  1  0
 10 11  1  0
 11 12  1  0
 12 13  1  0
 13 14  1  1
 13 15  1  0
 15 16  1  0
 16 17  1  0
 17 18  2  0
 18 19  1  0
 19 20  1  0
 20 21  1  0
 21 22  1  0
 22 23  1  0
 22 24  1  0
 24 25  1  0
 24 26  1  0
 19 27  1  0
 27 28  1  6
 27 29  1  0
 29 30  1  0
 30 31  1  0
 31 32  1  6
  7  5  1  0
 31 10  1  0
 31 13  1  0
 27 15  1  0
 24 18  1  0
  1 33  1  0
  1 34  1  0
  1 35  1  0
  2 36  1  1
  3 37  1  0
  3 38  1  0
  4 39  1  0
  4 40  1  0
  5 41  1  6
  8 42  1  0
  8 43  1  0
  8 44  1  0
  9 45  1  0
  9 46  1  0
  9 47  1  0
 10 48  1  1
 11 49  1  0
 11 50  1  0
 12 51  1  0
 12 52  1  0
 14 53  1  0
 14 54  1  0
 14 55  1  0
 15 56  1  6
 16 57  1  0
 16 58  1  0
 17 59  1  0
 19 60  1  1
 20 61  1  0
 20 62  1  0
 21 63  1  0
 21 64  1  0
 22 65  1  1
 23 66  1  0
 25 67  1  0
 25 68  1  0
 25 69  1  0
 26 70  1  0
 26 71  1  0
 26 72  1  0
 28 73  1  0
 28 74  1  0
 28 75  1  0
 29 76  1  0
 29 77  1  0
 30 78  1  0
 30 79  1  0
 32 80  1  0
 32 81  1  0
 32 82  1  0
M  END
>  <meeko>  (1) 
{"is_sidechain": [false], "intermolecular_energy": 2.731, "internal_energy": -0.839}

$$$$
EPH_relaxed_0001_pdb2pqr_Repair_89_r2_0001_out
     RDKit          3D

 82 86  0  0  0  0  0  0  0  0999 V2000
   -4.4120    6.0850   -2.5380 C   0  0  0  0  0  0  0  0  0  0  0  0
   -4.9860    7.4590   -2.1790 C   0  0  2  0  0  0  0  0  0  0  0  0
   -4.8000    7.7940   -0.6860 C   0  0  0  0  0  0  0  0  0  0  0  0
   -3.8120    8.9350   -0.4290 C   0  0  0  0  0  0  0  0  0  0  0  0
   -2.4420    8.6080   -0.9410 C   0  0  2  0  0  0  0  0  0  0  0  0
   -1.3720    8.9600   -0.0540 O   0  0  0  0  0  0  0  0  0  0  0  0
   -1.4130    9.6610   -1.3070 C   0  0  0  0  0  0  0  0  0  0  0  0
   -1.7100   11.1220   -1.1780 C   0  0  0  0  0  0  0  0  0  0  0  0
   -0.3070    9.2850   -2.2440 C   0  0  0  0  0  0  0  0  0  0  0  0
   -6.4640    7.5170   -2.5450 C   0  0  1  0  0  0  0  0  0  0  0  0
   -6.7920    6.7180   -3.8350 C   0  0  0  0  0  0  0  0  0  0  0  0
   -8.2030    6.1070   -3.6370 C   0  0  0  0  0  0  0  0  0  0  0  0
   -8.7730    6.8370   -2.3980 C   0  0  1  0  0  0  0  0  0  0  0  0
   -9.3030    8.2000   -2.9450 C   0  0  0  0  0  0  0  0  0  0  0  0
   -9.8730    6.0730   -1.5910 C   0  0  2  0  0  0  0  0  0  0  0  0
  -11.1660    5.7750   -2.3710 C   0  0  0  0  0  0  0  0  0  0  0  0
  -12.2240    6.8240   -2.2760 C   0  0  0  0  0  0  0  0  0  0  0  0
  -12.2580    7.8210   -1.3730 C   0  0  0  0  0  0  0  0  0  0  0  0
  -11.2110    7.9070   -0.2550 C   0  0  1  0  0  0  0  0  0  0  0  0
  -11.9190    8.1840    1.0970 C   0  0  0  0  0  0  0  0  0  0  0  0
  -12.8190    9.4140    1.0450 C   0  0  0  0  0  0  0  0  0  0  0  0
  -13.8830    9.2660   -0.0390 C   0  0  2  0  0  0  0  0  0  0  0  0
  -14.7770    8.2120    0.3330 O   0  0  0  0  0  0  0  0  0  0  0  0
  -13.2890    8.9740   -1.4450 C   0  0  0  0  0  0  0  0  0  0  0  0
  -12.5680   10.2380   -1.9780 C   0  0  0  0  0  0  0  0  0  0  0  0
  -14.4700    8.7060   -2.4170 C   0  0  0  0  0  0  0  0  0  0  0  0
  -10.1850    6.6960   -0.1710 C   0  0  1  0  0  0  0  0  0  0  0  0
  -10.7870    5.5490    0.6960 C   0  0  0  0  0  0  0  0  0  0  0  0
   -8.8820    7.1760    0.5710 C   0  0  0  0  0  0  0  0  0  0  0  0
   -7.7830    7.8150   -0.2980 C   0  0  0  0  0  0  0  0  0  0  0  0
   -7.4740    6.9440   -1.5200 C   0  0  2  0  0  0  0  0  0  0  0  0
   -6.9190    5.5730   -1.0010 C   0  0  0  0  0  0  0  0  0  0  0  0
   -4.1809    5.5318   -1.6157 H   0  0  0  0  0  0  0  0  0  0  0  0
   -5.1502    5.5220   -3.1280 H   0  0  0  0  0  0  0  0  0  0  0  0
   -3.4927    6.2144   -3.1280 H   0  0  0  0  0  0  0  0  0  0  0  0
   -4.4298    8.2110   -2.7580 H   0  0  0  0  0  0  0  0  0  0  0  0
   -5.7772    8.0807   -0.2702 H   0  0  0  0  0  0  0  0  0  0  0  0
   -4.3857    6.8959   -0.2045 H   0  0  0  0  0  0  0  0  0  0  0  0
   -4.1748    9.8416   -0.9355 H   0  0  0  0  0  0  0  0  0  0  0  0
   -3.7436    9.0911    0.6577 H   0  0  0  0  0  0  0  0  0  0  0  0
   -2.8278    7.7329   -1.4845 H   0  0  0  0  0  0  0  0  0  0  0  0
   -1.7650   11.3924   -0.1132 H   0  0  0  0  0  0  0  0  0  0  0  0
   -0.9115   11.7027   -1.6630 H   0  0  0  0  0  0  0  0  0  0  0  0
   -2.6718   11.3449   -1.6630 H   0  0  0  0  0  0  0  0  0  0  0  0
    0.5782    8.9841   -1.6644 H   0  0  0  0  0  0  0  0  0  0  0  0
   -0.6325    8.4470   -2.8779 H   0  0  0  0  0  0  0  0  0  0  0  0
   -0.0543   10.1477   -2.8779 H   0  0  0  0  0  0  0  0  0  0  0  0
   -6.5899    8.6065   -2.6289 H   0  0  0  0  0  0  0  0  0  0  0  0
   -6.7887    7.3886   -4.7069 H   0  0  0  0  0  0  0  0  0  0  0  0
   -6.0432    5.9322   -4.0136 H   0  0  0  0  0  0  0  0  0  0  0  0
   -8.8331    6.2903   -4.5199 H   0  0  0  0  0  0  0  0  0  0  0  0
   -8.1701    5.0160   -3.5003 H   0  0  0  0  0  0  0  0  0  0  0  0
   -9.5591    8.8587   -2.1021 H   0  0  0  0  0  0  0  0  0  0  0  0
   -8.5245    8.6763   -3.5591 H   0  0  0  0  0  0  0  0  0  0  0  0
  -10.1987    8.0253   -3.5591 H   0  0  0  0  0  0  0  0  0  0  0  0
   -9.3996    5.0961   -1.4136 H   0  0  0  0  0  0  0  0  0  0  0  0
  -10.9025    5.6531   -3.4320 H   0  0  0  0  0  0  0  0  0  0  0  0
  -11.5938    4.8692   -1.9165 H   0  0  0  0  0  0  0  0  0  0  0  0
  -13.0454    6.7780   -3.0061 H   0  0  0  0  0  0  0  0  0  0  0  0
  -10.5579    8.7534   -0.5141 H   0  0  0  0  0  0  0  0  0  0  0  0
  -12.5322    7.3093    1.3596 H   0  0  0  0  0  0  0  0  0  0  0  0
  -11.1392    8.3726    1.8496 H   0  0  0  0  0  0  0  0  0  0  0  0
  -13.3132    9.5399    2.0196 H   0  0  0  0  0  0  0  0  0  0  0  0
  -12.1997   10.2925    0.8114 H   0  0  0  0  0  0  0  0  0  0  0  0
  -14.4116   10.2276   -0.1151 H   0  0  0  0  0  0  0  0  0  0  0  0
  -15.6550    8.4320   -0.0210 H   0  0  0  0  0  0  0  0  0  0  0  0
  -12.2207   10.8469   -1.1303 H   0  0  0  0  0  0  0  0  0  0  0  0
  -11.7056    9.9371   -2.5910 H   0  0  0  0  0  0  0  0  0  0  0  0
  -13.2659   10.8272   -2.5910 H   0  0  0  0  0  0  0  0  0  0  0  0
  -15.3819    8.4991   -1.8377 H   0  0  0  0  0  0  0  0  0  0  0  0
  -14.6311    9.5904   -3.0509 H   0  0  0  0  0  0  0  0  0  0  0  0
  -14.2336    7.8387   -3.0509 H   0  0  0  0  0  0  0  0  0  0  0  0
  -10.6605    5.7900    1.7618 H   0  0  0  0  0  0  0  0  0  0  0  0
  -11.8579    5.4412    0.4690 H   0  0  0  0  0  0  0  0  0  0  0  0
  -10.2674    4.6064    0.4690 H   0  0  0  0  0  0  0  0  0  0  0  0
   -9.1829    7.9178    1.3254 H   0  0  0  0  0  0  0  0  0  0  0  0
   -8.4297    6.2602    0.9793 H   0  0  0  0  0  0  0  0  0  0  0  0
   -8.1230    8.8043   -0.6380 H   0  0  0  0  0  0  0  0  0  0  0  0
   -6.8685    7.9086    0.3061 H   0  0  0  0  0  0  0  0  0  0  0  0
   -6.9180    5.5706    0.0990 H   0  0  0  0  0  0  0  0  0  0  0  0
   -7.5573    4.7561   -1.3689 H   0  0  0  0  0  0  0  0  0  0  0  0
   -5.8922    5.4302   -1.3689 H   0  0  0  0  0  0  0  0  0  0  0  0
  1  2  1  0
  2  3  1  0
  3  4  1  0
  4  5  1  0
  5  6  1  0
  6  7  1  0
  7  8  1  0
  7  9  1  0
  2 10  1  0
 10 11  1  0
 11 12  1  0
 12 13  1  0
 13 14  1  6
 13 15  1  0
 15 16  1  0
 16 17  1  0
 17 18  2  0
 18 19  1  0
 19 20  1  0
 20 21  1  0
 21 22  1  0
 22 23  1  0
 22 24  1  0
 24 25  1  0
 24 26  1  0
 19 27  1  0
 27 28  1  1
 27 29  1  0
 29 30  1  0
 30 31  1  0
 31 32  1  1
  7  5  1  0
 31 10  1  0
 31 13  1  0
 27 15  1  0
 24 18  1  0
  1 33  1  0
  1 34  1  0
  1 35  1  0
  2 36  1  6
  3 37  1  0
  3 38  1  0
  4 39  1  0
  4 40  1  0
  5 41  1  6
  8 42  1  0
  8 43  1  0
  8 44  1  0
  9 45  1  0
  9 46  1  0
  9 47  1  0
 10 48  1  6
 11 49  1  0
 11 50  1  0
 12 51  1  0
 12 52  1  0
 14 53  1  0
 14 54  1  0
 14 55  1  0
 15 56  1  1
 16 57  1  0
 16 58  1  0
 17 59  1  0
 19 60  1  6
 20 61  1  0
 20 62  1  0
 21 63  1  0
 21 64  1  0
 22 65  1  6
 23 66  1  0
 25 67  1  0
 25 68  1  0
 25 69  1  0
 26 70  1  0
 26 71  1  0
 26 72  1  0
 28 73  1  0
 28 74  1  0
 28 75  1  0
 29 76  1  0
 29 77  1  0
 30 78  1  0
 30 79  1  0
 32 80  1  0
 32 81  1  0
 32 82  1  0
M  END
>  <meeko>  (2) 
{"is_sidechain": [false], "intermolecular_energy": 2.731, "internal_energy": -0.839}

$$$$
EPH_relaxed_0001_pdb2pqr_Repair_89_r2_0001_out
     RDKit          3D

 82 86  0  0  0  0  0  0  0  0999 V2000
    2.0020   19.6060   -0.5860 C   0  0  0  0  0  0  0  0  0  0  0  0
    2.4120   18.3730    0.2240 C   0  0  2  0  0  0  0  0  0  0  0  0
    3.8550   17.9280   -0.0860 C   0  0  0  0  0  0  0  0  0  0  0  0
    4.8700   18.3370    0.9850 C   0  0  0  0  0  0  0  0  0  0  0  0
    4.1940   18.8220    2.2320 C   0  0  2  0  0  0  0  0  0  0  0  0
    4.4500   20.1940    2.5560 O   0  0  0  0  0  0  0  0  0  0  0  0
    4.9450   19.2200    3.4890 C   0  0  0  0  0  0  0  0  0  0  0  0
    6.4380   19.1500    3.5620 C   0  0  0  0  0  0  0  0  0  0  0  0
    4.2110   19.2080    4.7940 C   0  0  0  0  0  0  0  0  0  0  0  0
    1.4440   17.2270   -0.0450 C   0  0  1  0  0  0  0  0  0  0  0  0
    0.1600   17.6910   -0.7840 C   0  0  0  0  0  0  0  0  0  0  0  0
   -0.2520   16.5370   -1.7330 C   0  0  0  0  0  0  0  0  0  0  0  0
    0.6010   15.3310   -1.2740 C   0  0  1  0  0  0  0  0  0  0  0  0
   -0.1550   14.7530   -0.0370 C   0  0  0  0  0  0  0  0  0  0  0  0
    0.8760   14.2300   -2.3490 C   0  0  2  0  0  0  0  0  0  0  0  0
   -0.3760   13.5110   -2.8820 C   0  0  0  0  0  0  0  0  0  0  0  0
   -0.7730   12.2830   -2.1320 C   0  0  0  0  0  0  0  0  0  0  0  0
    0.0010   11.6160   -1.2560 C   0  0  0  0  0  0  0  0  0  0  0  0
    1.4580   12.0330   -1.0160 C   0  0  1  0  0  0  0  0  0  0  0  0
    2.3670   10.7760   -1.0390 C   0  0  0  0  0  0  0  0  0  0  0  0
    1.9000    9.6990   -0.0630 C   0  0  0  0  0  0  0  0  0  0  0  0
    0.4680    9.2700   -0.3700 C   0  0  2  0  0  0  0  0  0  0  0  0
    0.4470    8.6050   -1.6370 O   0  0  0  0  0  0  0  0  0  0  0  0
   -0.5380   10.4550   -0.3840 C   0  0  0  0  0  0  0  0  0  0  0  0
   -0.7410   10.9830    1.0570 C   0  0  0  0  0  0  0  0  0  0  0  0
   -1.9160    9.9070   -0.8440 C   0  0  0  0  0  0  0  0  0  0  0  0
    2.0070   13.1990   -1.9460 C   0  0  1  0  0  0  0  0  0  0  0  0
    2.5610   12.6030   -3.2770 C   0  0  0  0  0  0  0  0  0  0  0  0
    3.2250   13.8960   -1.2320 C   0  0  0  0  0  0  0  0  0  0  0  0
    2.8970   15.0560   -0.2720 C   0  0  0  0  0  0  0  0  0  0  0  0
    1.9500   16.0630   -0.9330 C   0  0  2  0  0  0  0  0  0  0  0  0
    2.6920   16.6780   -2.1680 C   0  0  0  0  0  0  0  0  0  0  0  0
    1.7307   20.4219    0.1001 H   0  0  0  0  0  0  0  0  0  0  0  0
    2.8426   19.9244   -1.2200 H   0  0  0  0  0  0  0  0  0  0  0  0
    1.1381   19.3576   -1.2200 H   0  0  0  0  0  0  0  0  0  0  0  0
    2.3731   18.6492    1.2880 H   0  0  0  0  0  0  0  0  0  0  0  0
    3.8683   16.8318   -0.1762 H   0  0  0  0  0  0  0  0  0  0  0  0
    4.1524   18.4301   -1.0184 H   0  0  0  0  0  0  0  0  0  0  0  0
    5.4959   17.4673    1.2338 H   0  0  0  0  0  0  0  0  0  0  0  0
    5.4803   19.1594    0.5833 H   0  0  0  0  0  0  0  0  0  0  0  0
    3.3439   18.1445    2.0637 H   0  0  0  0  0  0  0  0  0  0  0  0
    6.7533   19.1352    4.6157 H   0  0  0  0  0  0  0  0  0  0  0  0
    6.7870   18.2345    3.0620 H   0  0  0  0  0  0  0  0  0  0  0  0
    6.8712   20.0288    3.0620 H   0  0  0  0  0  0  0  0  0  0  0  0
    4.9350   19.2198    5.6220 H   0  0  0  0  0  0  0  0  0  0  0  0
    3.5647   20.0957    4.8593 H   0  0  0  0  0  0  0  0  0  0  0  0
    3.5940   18.2996    4.8593 H   0  0  0  0  0  0  0  0  0  0  0  0
    1.2851   16.8738    0.9846 H   0  0  0  0  0  0  0  0  0  0  0  0
   -0.6431   17.8903   -0.0592 H   0  0  0  0  0  0  0  0  0  0  0  0
    0.3416   18.6188   -1.3463 H   0  0  0  0  0  0  0  0  0  0  0  0
   -1.3246   16.3150   -1.6316 H   0  0  0  0  0  0  0  0  0  0  0  0
   -0.0852   16.7873   -2.7911 H   0  0  0  0  0  0  0  0  0  0  0  0
    0.3204   15.1165    0.8860 H   0  0  0  0  0  0  0  0  0  0  0  0
   -1.2046   15.0811   -0.0626 H   0  0  0  0  0  0  0  0  0  0  0  0
   -0.1136   13.6541   -0.0626 H   0  0  0  0  0  0  0  0  0  0  0  0
    1.2654   14.8172   -3.1937 H   0  0  0  0  0  0  0  0  0  0  0  0
   -1.2168   14.2192   -2.8442 H   0  0  0  0  0  0  0  0  0  0  0  0
   -0.1260   13.1785   -3.9003 H   0  0  0  0  0  0  0  0  0  0  0  0
   -1.7846   11.8896   -2.3105 H   0  0  0  0  0  0  0  0  0  0  0  0
    1.4820   12.4930   -0.0171 H   0  0  0  0  0  0  0  0  0  0  0  0
    2.3630   10.3563   -2.0558 H   0  0  0  0  0  0  0  0  0  0  0  0
    3.3768   11.0881   -0.7343 H   0  0  0  0  0  0  0  0  0  0  0  0
    2.5634    8.8255   -0.1462 H   0  0  0  0  0  0  0  0  0  0  0  0
    1.9327   10.1105    0.9566 H   0  0  0  0  0  0  0  0  0  0  0  0
    0.1459    8.5959    0.4374 H   0  0  0  0  0  0  0  0  0  0  0  0
   -0.1370    9.1130   -2.2250 H   0  0  0  0  0  0  0  0  0  0  0  0
   -0.4426   10.2070    1.7773 H   0  0  0  0  0  0  0  0  0  0  0  0
   -0.1240   11.8809    1.2088 H   0  0  0  0  0  0  0  0  0  0  0  0
   -1.8006   11.2363    1.2088 H   0  0  0  0  0  0  0  0  0  0  0  0
   -2.5269    9.6641    0.0379 H   0  0  0  0  0  0  0  0  0  0  0  0
   -2.4306   10.6689   -1.4479 H   0  0  0  0  0  0  0  0  0  0  0  0
   -1.7668    8.9998   -1.4479 H   0  0  0  0  0  0  0  0  0  0  0  0
    3.2936   11.8148   -3.0489 H   0  0  0  0  0  0  0  0  0  0  0  0
    1.7322   12.1755   -3.8603 H   0  0  0  0  0  0  0  0  0  0  0  0
    3.0478   13.3984   -3.8603 H   0  0  0  0  0  0  0  0  0  0  0  0
    3.7569   13.1260   -0.6539 H   0  0  0  0  0  0  0  0  0  0  0  0
    3.8120   14.3512   -2.0433 H   0  0  0  0  0  0  0  0  0  0  0  0
    2.4180   14.6509    0.6316 H   0  0  0  0  0  0  0  0  0  0  0  0
    3.8330   15.5724   -0.0127 H   0  0  0  0  0  0  0  0  0  0  0  0
    3.4952   17.3437   -1.8190 H   0  0  0  0  0  0  0  0  0  0  0  0
    3.1241   15.8696   -2.7761 H   0  0  0  0  0  0  0  0  0  0  0  0
    1.9778   17.2526   -2.7761 H   0  0  0  0  0  0  0  0  0  0  0  0
  1  2  1  0
  2  3  1  0
  3  4  1  0
  4  5  1  0
  5  6  1  0
  6  7  1  0
  7  8  1  0
  7  9  1  0
  2 10  1  0
 10 11  1  0
 11 12  1  0
 12 13  1  0
 13 14  1  1
 13 15  1  0
 15 16  1  0
 16 17  1  0
 17 18  2  0
 18 19  1  0
 19 20  1  0
 20 21  1  0
 21 22  1  0
 22 23  1  0
 22 24  1  0
 24 25  1  0
 24 26  1  0
 19 27  1  0
 27 28  1  6
 27 29  1  0
 29 30  1  0
 30 31  1  0
 31 32  1  6
  7  5  1  0
 31 10  1  0
 31 13  1  0
 27 15  1  0
 24 18  1  0
  1 33  1  0
  1 34  1  0
  1 35  1  0
  2 36  1  1
  3 37  1  0
  3 38  1  0
  4 39  1  0
  4 40  1  0
  5 41  1  1
  8 42  1  0
  8 43  1  0
  8 44  1  0
  9 45  1  0
  9 46  1  0
  9 47  1  0
 10 48  1  1
 11 49  1  0
 11 50  1  0
 12 51  1  0
 12 52  1  0
 14 53  1  0
 14 54  1  0
 14 55  1  0
 15 56  1  6
 16 57  1  0
 16 58  1  0
 17 59  1  0
 19 60  1  1
 20 61  1  0
 20 62  1  0
 21 63  1  0
 21 64  1  0
 22 65  1  1
 23 66  1  0
 25 67  1  0
 25 68  1  0
 25 69  1  0
 26 70  1  0
 26 71  1  0
 26 72  1  0
 28 73  1  0
 28 74  1  0
 28 75  1  0
 29 76  1  0
 29 77  1  0
 30 78  1  0
 30 79  1  0
 32 80  1  0
 32 81  1  0
 32 82  1  0
M  END
>  <meeko>  (3) 
{"is_sidechain": [false], "intermolecular_energy": 2.731, "internal_energy": -0.839}

$$$$
EPH_relaxed_0001_pdb2pqr_Repair_89_r2_0001_out
     RDKit          3D

 82 86  0  0  0  0  0  0  0  0999 V2000
    0.4160   18.4730   -0.1020 C   0  0  0  0  0  0  0  0  0  0  0  0
    1.4920   17.3970   -0.2730 C   0  0  2  0  0  0  0  0  0  0  0  0
    2.7360   17.9300   -1.0110 C   0  0  0  0  0  0  0  0  0  0  0  0
    3.9660   18.0840   -0.1110 C   0  0  0  0  0  0  0  0  0  0  0  0
    3.5940   18.5690    1.2570 C   0  0  2  0  0  0  0  0  0  0  0  0
    3.8190   19.9680    1.4770 O   0  0  0  0  0  0  0  0  0  0  0  0
    4.6070   19.0670    2.2720 C   0  0  0  0  0  0  0  0  0  0  0  0
    6.0700   19.1030    1.9600 C   0  0  0  0  0  0  0  0  0  0  0  0
    4.2330   19.0550    3.7210 C   0  0  0  0  0  0  0  0  0  0  0  0
    0.9150   16.2010   -1.0220 C   0  0  1  0  0  0  0  0  0  0  0  0
    0.7740   16.4620   -2.5460 C   0  0  0  0  0  0  0  0  0  0  0  0
    1.0620   15.1160   -3.2590 C   0  0  0  0  0  0  0  0  0  0  0  0
    1.0310   14.0610   -2.1280 C   0  0  1  0  0  0  0  0  0  0  0  0
   -0.4840   13.7610   -1.9000 C   0  0  0  0  0  0  0  0  0  0  0  0
    1.8460   12.7510   -2.3820 C   0  0  2  0  0  0  0  0  0  0  0  0
    1.3700   11.9070   -3.5760 C   0  0  0  0  0  0  0  0  0  0  0  0
    0.3430   10.8710   -3.2560 C   0  0  0  0  0  0  0  0  0  0  0  0
    0.0320   10.4340   -2.0220 C   0  0  0  0  0  0  0  0  0  0  0  0
    0.8110   10.9220   -0.7930 C   0  0  1  0  0  0  0  0  0  0  0  0
    1.1770    9.7100    0.1030 C   0  0  0  0  0  0  0  0  0  0  0  0
   -0.0410    8.8720    0.4800 C   0  0  0  0  0  0  0  0  0  0  0  0
   -0.7550    8.3570   -0.7670 C   0  0  2  0  0  0  0  0  0  0  0  0
    0.1000    7.4240   -1.4360 O   0  0  0  0  0  0  0  0  0  0  0  0
   -1.1640    9.4890   -1.7510 C   0  0  0  0  0  0  0  0  0  0  0  0
   -2.3140   10.3240   -1.1340 C   0  0  0  0  0  0  0  0  0  0  0  0
   -1.7460    8.8240   -3.0280 C   0  0  0  0  0  0  0  0  0  0  0  0
    2.0590   11.8600   -1.0920 C   0  0  1  0  0  0  0  0  0  0  0  0
    3.3270   10.9910   -1.3550 C   0  0  0  0  0  0  0  0  0  0  0  0
    2.3710   12.7230    0.1870 C   0  0  0  0  0  0  0  0  0  0  0  0
    1.6220   14.0630    0.3210 C   0  0  0  0  0  0  0  0  0  0  0  0
    1.7170   14.8760   -0.9730 C   0  0  2  0  0  0  0  0  0  0  0  0
    3.2280   15.2120   -1.2160 C   0  0  0  0  0  0  0  0  0  0  0  0
    0.2402   18.6488    0.9696 H   0  0  0  0  0  0  0  0  0  0  0  0
    0.7525   19.4067   -0.5764 H   0  0  0  0  0  0  0  0  0  0  0  0
   -0.5177   18.1365   -0.5764 H   0  0  0  0  0  0  0  0  0  0  0  0
    1.8132   17.0878    0.7326 H   0  0  0  0  0  0  0  0  0  0  0  0
    2.9848   17.2304   -1.8226 H   0  0  0  0  0  0  0  0  0  0  0  0
    2.4832   18.9331   -1.3849 H   0  0  0  0  0  0  0  0  0  0  0  0
    4.4655   17.1082   -0.0198 H   0  0  0  0  0  0  0  0  0  0  0  0
    4.6349   18.8278   -0.5685 H   0  0  0  0  0  0  0  0  0  0  0  0
    2.7835   17.8284    1.3257 H   0  0  0  0  0  0  0  0  0  0  0  0
    6.6447   19.1171    2.8978 H   0  0  0  0  0  0  0  0  0  0  0  0
    6.3425   18.2113    1.3764 H   0  0  0  0  0  0  0  0  0  0  0  0
    6.2983   20.0070    1.3764 H   0  0  0  0  0  0  0  0  0  0  0  0
    5.1450   19.0843    4.3353 H   0  0  0  0  0  0  0  0  0  0  0  0
    3.6107   19.9336    3.9464 H   0  0  0  0  0  0  0  0  0  0  0  0
    3.6683   18.1383    3.9464 H   0  0  0  0  0  0  0  0  0  0  0  0
   -0.0356   16.0859   -0.4805 H   0  0  0  0  0  0  0  0  0  0  0  0
   -0.2453   16.8036   -2.7791 H   0  0  0  0  0  0  0  0  0  0  0  0
    1.4734   17.2429   -2.8792 H   0  0  0  0  0  0  0  0  0  0  0  0
    0.2886   14.9017   -4.0113 H   0  0  0  0  0  0  0  0  0  0  0  0
    2.0225   15.1250   -3.7950 H   0  0  0  0  0  0  0  0  0  0  0  0
   -0.6912   13.7200   -0.8205 H   0  0  0  0  0  0  0  0  0  0  0  0
   -1.0886   14.5569   -2.3594 H   0  0  0  0  0  0  0  0  0  0  0  0
   -0.7397   12.7948   -2.3594 H   0  0  0  0  0  0  0  0  0  0  0  0
    2.8343   13.1403   -2.6678 H   0  0  0  0  0  0  0  0  0  0  0  0
    0.9425   12.5892   -4.3255 H   0  0  0  0  0  0  0  0  0  0  0  0
    2.2543   11.3587   -3.9328 H   0  0  0  0  0  0  0  0  0  0  0  0
   -0.2054   10.4278   -4.1003 H   0  0  0  0  0  0  0  0  0  0  0  0
    0.1320   11.5954   -0.2493 H   0  0  0  0  0  0  0  0  0  0  0  0
    1.8894    9.0720   -0.4406 H   0  0  0  0  0  0  0  0  0  0  0  0
    1.6132   10.1024    1.0335 H   0  0  0  0  0  0  0  0  0  0  0  0
    0.2854    8.0152    1.0878 H   0  0  0  0  0  0  0  0  0  0  0  0
   -0.7392    9.5031    1.0493 H   0  0  0  0  0  0  0  0  0  0  0  0
   -1.6877    7.8758   -0.4375 H   0  0  0  0  0  0  0  0  0  0  0  0
   -0.0450    6.5510   -1.0330 H   0  0  0  0  0  0  0  0  0  0  0  0
   -2.2520   10.2790   -0.0367 H   0  0  0  0  0  0  0  0  0  0  0  0
   -2.2256   11.3697   -1.4636 H   0  0  0  0  0  0  0  0  0  0  0  0
   -3.2810    9.9162   -1.4636 H   0  0  0  0  0  0  0  0  0  0  0  0
   -2.4451    8.0253   -2.7393 H   0  0  0  0  0  0  0  0  0  0  0  0
   -2.2785    9.5794   -3.6246 H   0  0  0  0  0  0  0  0  0  0  0  0
   -0.9267    8.3964   -3.6246 H   0  0  0  0  0  0  0  0  0  0  0  0
    3.7694   10.6878   -0.3946 H   0  0  0  0  0  0  0  0  0  0  0  0
    3.0453   10.0953   -1.9280 H   0  0  0  0  0  0  0  0  0  0  0  0
    4.0607   11.5770   -1.9280 H   0  0  0  0  0  0  0  0  0  0  0  0
    2.1227   12.1135    1.0684 H   0  0  0  0  0  0  0  0  0  0  0  0
    3.4332   12.9947    0.0986 H   0  0  0  0  0  0  0  0  0  0  0  0
    0.5634   13.8628    0.5433 H   0  0  0  0  0  0  0  0  0  0  0  0
    2.0833   14.6428    1.1340 H   0  0  0  0  0  0  0  0  0  0  0  0
    3.7386   15.3255   -0.2483 H   0  0  0  0  0  0  0  0  0  0  0  0
    3.6981   14.3964   -1.7851 H   0  0  0  0  0  0  0  0  0  0  0  0
    3.3081   16.1499   -1.7851 H   0  0  0  0  0  0  0  0  0  0  0  0
  1  2  1  0
  2  3  1  0
  3  4  1  0
  4  5  1  0
  5  6  1  0
  6  7  1  0
  7  8  1  0
  7  9  1  0
  2 10  1  0
 10 11  1  0
 11 12  1  0
 12 13  1  0
 13 14  1  1
 13 15  1  0
 15 16  1  0
 16 17  1  0
 17 18  2  0
 18 19  1  0
 19 20  1  0
 20 21  1  0
 21 22  1  0
 22 23  1  0
 22 24  1  0
 24 25  1  0
 24 26  1  0
 19 27  1  0
 27 28  1  6
 27 29  1  0
 29 30  1  0
 30 31  1  0
 31 32  1  6
  7  5  1  0
 31 10  1  0
 31 13  1  0
 27 15  1  0
 24 18  1  0
  1 33  1  0
  1 34  1  0
  1 35  1  0
  2 36  1  1
  3 37  1  0
  3 38  1  0
  4 39  1  0
  4 40  1  0
  5 41  1  1
  8 42  1  0
  8 43  1  0
  8 44  1  0
  9 45  1  0
  9 46  1  0
  9 47  1  0
 10 48  1  1
 11 49  1  0
 11 50  1  0
 12 51  1  0
 12 52  1  0
 14 53  1  0
 14 54  1  0
 14 55  1  0
 15 56  1  6
 16 57  1  0
 16 58  1  0
 17 59  1  0
 19 60  1  1
 20 61  1  0
 20 62  1  0
 21 63  1  0
 21 64  1  0
 22 65  1  1
 23 66  1  0
 25 67  1  0
 25 68  1  0
 25 69  1  0
 26 70  1  0
 26 71  1  0
 26 72  1  0
 28 73  1  0
 28 74  1  0
 28 75  1  0
 29 76  1  0
 29 77  1  0
 30 78  1  0
 30 79  1  0
 32 80  1  0
 32 81  1  0
 32 82  1  0
M  END
>  <meeko>  (4) 
{"is_sidechain": [false], "intermolecular_energy": 2.731, "internal_energy": -0.839}

$$$$
EPH_relaxed_0001_pdb2pqr_Repair_89_r2_0001_out
     RDKit          3D

 82 86  0  0  0  0  0  0  0  0999 V2000
    2.4040   18.0650   -2.5360 C   0  0  0  0  0  0  0  0  0  0  0  0
    1.0680   17.6940   -1.8850 C   0  0  2  0  0  0  0  0  0  0  0  0
    1.1340   17.7580   -0.3460 C   0  0  0  0  0  0  0  0  0  0  0  0
    0.7610   19.1270    0.2290 C   0  0  0  0  0  0  0  0  0  0  0  0
   -0.6970   19.2060    0.5710 C   0  0  2  0  0  0  0  0  0  0  0  0
   -1.5310   18.2900   -0.1500 O   0  0  0  0  0  0  0  0  0  0  0  0
   -1.7590   19.6870   -0.4000 C   0  0  0  0  0  0  0  0  0  0  0  0
   -1.4080   20.1210   -1.7880 C   0  0  0  0  0  0  0  0  0  0  0  0
   -3.0550   20.1940    0.1510 C   0  0  0  0  0  0  0  0  0  0  0  0
    0.6430   16.3000   -2.3310 C   0  0  1  0  0  0  0  0  0  0  0  0
    0.7640   16.1010   -3.8650 C   0  0  0  0  0  0  0  0  0  0  0  0
    1.1850   14.6260   -4.0920 C   0  0  0  0  0  0  0  0  0  0  0  0
    0.9700   13.9430   -2.7210 C   0  0  1  0  0  0  0  0  0  0  0  0
   -0.5580   13.6300   -2.6640 C   0  0  0  0  0  0  0  0  0  0  0  0
    1.8310   12.6690   -2.4410 C   0  0  2  0  0  0  0  0  0  0  0  0
    1.5770   11.4870   -3.3940 C   0  0  0  0  0  0  0  0  0  0  0  0
    0.5220   10.5280   -2.9530 C   0  0  0  0  0  0  0  0  0  0  0  0
    0.0060   10.4490   -1.7120 C   0  0  0  0  0  0  0  0  0  0  0  0
    0.5560   11.3170   -0.5730 C   0  0  1  0  0  0  0  0  0  0  0  0
    0.7740   10.4410    0.6880 C   0  0  0  0  0  0  0  0  0  0  0  0
   -0.4820    9.6750    1.0920 C   0  0  0  0  0  0  0  0  0  0  0  0
   -0.9640    8.7790   -0.0450 C   0  0  2  0  0  0  0  0  0  0  0  0
    0.0030    7.7460   -0.2600 O   0  0  0  0  0  0  0  0  0  0  0  0
   -1.2090    9.5510   -1.3720 C   0  0  0  0  0  0  0  0  0  0  0  0
   -2.4560   10.4560   -1.2250 C   0  0  0  0  0  0  0  0  0  0  0  0
   -1.5540    8.5110   -2.4720 C   0  0  0  0  0  0  0  0  0  0  0  0
    1.8270   12.2030   -0.9290 C   0  0  1  0  0  0  0  0  0  0  0  0
    3.1300   11.3740   -0.7140 C   0  0  0  0  0  0  0  0  0  0  0  0
    1.9040   13.4170    0.0710 C   0  0  0  0  0  0  0  0  0  0  0  0
    1.1280   14.6890   -0.3200 C   0  0  0  0  0  0  0  0  0  0  0  0
    1.4380   15.0980   -1.7630 C   0  0  2  0  0  0  0  0  0  0  0  0
    2.9650   15.4410   -1.8460 C   0  0  0  0  0  0  0  0  0  0  0  0
    3.1485   18.2717   -1.7531 H   0  0  0  0  0  0  0  0  0  0  0  0
    2.7518   17.2294   -3.1612 H   0  0  0  0  0  0  0  0  0  0  0  0
    2.2711   18.9602   -3.1612 H   0  0  0  0  0  0  0  0  0  0  0  0
    0.3227   18.4332   -2.2137 H   0  0  0  0  0  0  0  0  0  0  0  0
    0.4402   17.0087    0.0629 H   0  0  0  0  0  0  0  0  0  0  0  0
    2.1782   17.5627   -0.0604 H   0  0  0  0  0  0  0  0  0  0  0  0
    1.3511   19.3037    1.1404 H   0  0  0  0  0  0  0  0  0  0  0  0
    0.9762   19.8897   -0.5339 H   0  0  0  0  0  0  0  0  0  0  0  0
   -0.4629   19.4894    1.6078 H   0  0  0  0  0  0  0  0  0  0  0  0
   -0.7169   20.9755   -1.7412 H   0  0  0  0  0  0  0  0  0  0  0  0
   -0.9262   19.2885   -2.3217 H   0  0  0  0  0  0  0  0  0  0  0  0
   -2.3228   20.4181   -2.3217 H   0  0  0  0  0  0  0  0  0  0  0  0
   -3.0169   20.1791    1.2502 H   0  0  0  0  0  0  0  0  0  0  0  0
   -3.2231   21.2242   -0.1961 H   0  0  0  0  0  0  0  0  0  0  0  0
   -3.8775   19.5513   -0.1961 H   0  0  0  0  0  0  0  0  0  0  0  0
   -0.3857   16.2877   -1.9416 H   0  0  0  0  0  0  0  0  0  0  0  0
   -0.2034   16.2979   -4.3501 H   0  0  0  0  0  0  0  0  0  0  0  0
    1.5017   16.7935   -4.2965 H   0  0  0  0  0  0  0  0  0  0  0  0
    0.5556   14.1568   -4.8625 H   0  0  0  0  0  0  0  0  0  0  0  0
    2.2237   14.5382   -4.4433 H   0  0  0  0  0  0  0  0  0  0  0  0
   -0.8799   13.5641   -1.6142 H   0  0  0  0  0  0  0  0  0  0  0  0
   -1.1158   14.4325   -3.1688 H   0  0  0  0  0  0  0  0  0  0  0  0
   -0.7553   12.6728   -3.1688 H   0  0  0  0  0  0  0  0  0  0  0  0
    2.8495   13.0195   -2.6642 H   0  0  0  0  0  0  0  0  0  0  0  0
    1.2780   11.8958   -4.3705 H   0  0  0  0  0  0  0  0  0  0  0  0
    2.5154   10.9140   -3.4250 H   0  0  0  0  0  0  0  0  0  0  0  0
    0.1331    9.8263   -3.7056 H   0  0  0  0  0  0  0  0  0  0  0  0
   -0.2139   12.0760   -0.3700 H   0  0  0  0  0  0  0  0  0  0  0  0
    1.5767    9.7180    0.4807 H   0  0  0  0  0  0  0  0  0  0  0  0
    1.0381   11.1116    1.5190 H   0  0  0  0  0  0  0  0  0  0  0  0
   -0.2569    9.0522    1.9703 H   0  0  0  0  0  0  0  0  0  0  0  0
   -1.2748   10.4002    1.3275 H   0  0  0  0  0  0  0  0  0  0  0  0
   -1.9345    8.3576    0.2559 H   0  0  0  0  0  0  0  0  0  0  0  0
   -0.1670    7.0430    0.3890 H   0  0  0  0  0  0  0  0  0  0  0  0
   -2.6717   10.6125   -0.1578 H   0  0  0  0  0  0  0  0  0  0  0  0
   -2.2637   11.4262   -1.7064 H   0  0  0  0  0  0  0  0  0  0  0  0
   -3.3188    9.9724   -1.7064 H   0  0  0  0  0  0  0  0  0  0  0  0
   -1.8668    7.5680   -1.9999 H   0  0  0  0  0  0  0  0  0  0  0  0
   -2.3723    8.8969   -3.0977 H   0  0  0  0  0  0  0  0  0  0  0  0
   -0.6673    8.3313   -3.0977 H   0  0  0  0  0  0  0  0  0  0  0  0
    3.3158   11.2558    0.3637 H   0  0  0  0  0  0  0  0  0  0  0  0
    3.0146   10.3829   -1.1770 H   0  0  0  0  0  0  0  0  0  0  0  0
    3.9789   11.8985   -1.1770 H   0  0  0  0  0  0  0  0  0  0  0  0
    1.5144   13.0744    1.0410 H   0  0  0  0  0  0  0  0  0  0  0  0
    2.9624   13.7165    0.0792 H   0  0  0  0  0  0  0  0  0  0  0  0
    0.0493   14.4962   -0.2244 H   0  0  0  0  0  0  0  0  0  0  0  0
    1.4337   15.5063    0.3497 H   0  0  0  0  0  0  0  0  0  0  0  0
    3.3758   15.5333   -0.8298 H   0  0  0  0  0  0  0  0  0  0  0  0
    3.4923   14.6389   -2.3832 H   0  0  0  0  0  0  0  0  0  0  0  0
    3.0986   16.3915   -2.3832 H   0  0  0  0  0  0  0  0  0  0  0  0
  1  2  1  0
  2  3  1  0
  3  4  1  0
  4  5  1  0
  5  6  1  0
  6  7  1  0
  7  8  1  0
  7  9  1  0
  2 10  1  0
 10 11  1  0
 11 12  1  0
 12 13  1  0
 13 14  1  1
 13 15  1  0
 15 16  1  0
 16 17  1  0
 17 18  2  0
 18 19  1  0
 19 20  1  0
 20 21  1  0
 21 22  1  0
 22 23  1  0
 22 24  1  0
 24 25  1  0
 24 26  1  0
 19 27  1  0
 27 28  1  6
 27 29  1  0
 29 30  1  0
 30 31  1  0
 31 32  1  1
  7  5  1  0
 31 10  1  0
 31 13  1  0
 27 15  1  0
 24 18  1  0
  1 33  1  0
  1 34  1  0
  1 35  1  0
  2 36  1  6
  3 37  1  0
  3 38  1  0
  4 39  1  0
  4 40  1  0
  5 41  1  1
  8 42  1  0
  8 43  1  0
  8 44  1  0
  9 45  1  0
  9 46  1  0
  9 47  1  0
 10 48  1  1
 11 49  1  0
 11 50  1  0
 12 51  1  0
 12 52  1  0
 14 53  1  0
 14 54  1  0
 14 55  1  0
 15 56  1  6
 16 57  1  0
 16 58  1  0
 17 59  1  0
 19 60  1  1
 20 61  1  0
 20 62  1  0
 21 63  1  0
 21 64  1  0
 22 65  1  1
 23 66  1  0
 25 67  1  0
 25 68  1  0
 25 69  1  0
 26 70  1  0
 26 71  1  0
 26 72  1  0
 28 73  1  0
 28 74  1  0
 28 75  1  0
 29 76  1  0
 29 77  1  0
 30 78  1  0
 30 79  1  0
 32 80  1  0
 32 81  1  0
 32 82  1  0
M  END
>  <meeko>  (5) 
{"is_sidechain": [false], "intermolecular_energy": 2.731, "internal_energy": -0.839}

$$$$
EPH_relaxed_0001_pdb2pqr_Repair_89_r2_0001_out
     RDKit          3D

 82 86  0  0  0  0  0  0  0  0999 V2000
    3.7390   18.2680    0.8280 C   0  0  0  0  0  0  0  0  0  0  0  0
    2.7060   18.7470   -0.1960 C   0  0  2  0  0  0  0  0  0  0  0  0
    1.9420   19.9950    0.2900 C   0  0  0  0  0  0  0  0  0  0  0  0
    0.7130   19.6700    1.1430 C   0  0  0  0  0  0  0  0  0  0  0  0
   -0.5470   20.1900    0.5200 C   0  0  2  0  0  0  0  0  0  0  0  0
   -1.6870   20.1940    1.3890 O   0  0  0  0  0  0  0  0  0  0  0  0
   -1.7640   19.3250    0.2480 C   0  0  0  0  0  0  0  0  0  0  0  0
   -1.7790   17.8690    0.5930 C   0  0  0  0  0  0  0  0  0  0  0  0
   -2.7460   19.7760   -0.7880 C   0  0  0  0  0  0  0  0  0  0  0  0
    1.7240   17.6240   -0.5090 C   0  0  1  0  0  0  0  0  0  0  0  0
    0.6280   18.0530   -1.5200 C   0  0  0  0  0  0  0  0  0  0  0  0
    0.3130   16.8100   -2.3920 C   0  0  0  0  0  0  0  0  0  0  0  0
    0.9840   15.6320   -1.6480 C   0  0  1  0  0  0  0  0  0  0  0  0
   -0.0190   15.2480   -0.5150 C   0  0  0  0  0  0  0  0  0  0  0  0
    1.3690   14.3930   -2.5210 C   0  0  2  0  0  0  0  0  0  0  0  0
    0.1860   13.6740   -3.1920 C   0  0  0  0  0  0  0  0  0  0  0  0
   -0.4230   12.5690   -2.3940 C   0  0  0  0  0  0  0  0  0  0  0  0
    0.1340   11.9810   -1.3190 C   0  0  0  0  0  0  0  0  0  0  0  0
    1.5500   12.3540   -0.8630 C   0  0  1  0  0  0  0  0  0  0  0  0
    2.3590   11.0620   -0.5730 C   0  0  0  0  0  0  0  0  0  0  0  0
    1.6520   10.1390    0.4150 C   0  0  0  0  0  0  0  0  0  0  0  0
    0.2710    9.7430   -0.1010 C   0  0  2  0  0  0  0  0  0  0  0  0
    0.4300    8.9280   -1.2660 O   0  0  0  0  0  0  0  0  0  0  0  0
   -0.6310   10.9640   -0.4360 C   0  0  0  0  0  0  0  0  0  0  0  0
   -1.0510   11.6770    0.8730 C   0  0  0  0  0  0  0  0  0  0  0  0
   -1.9400   10.4290   -1.0780 C   0  0  0  0  0  0  0  0  0  0  0  0
    2.3360   13.3680   -1.8010 C   0  0  1  0  0  0  0  0  0  0  0  0
    3.0750   12.5850   -2.9300 C   0  0  0  0  0  0  0  0  0  0  0  0
    3.4520   14.0900   -0.9580 C   0  0  0  0  0  0  0  0  0  0  0  0
    3.0400   15.3750   -0.2140 C   0  0  0  0  0  0  0  0  0  0  0  0
    2.2980   16.3350   -1.1490 C   0  0  2  0  0  0  0  0  0  0  0  0
    3.2900   16.7560   -2.2870 C   0  0  0  0  0  0  0  0  0  0  0  0
    3.3572   18.4450    1.8443 H   0  0  0  0  0  0  0  0  0  0  0  0
    3.9231   17.1926    0.6876 H   0  0  0  0  0  0  0  0  0  0  0  0
    4.6787   18.8223    0.6876 H   0  0  0  0  0  0  0  0  0  0  0  0
    3.2514   19.0286   -1.1088 H   0  0  0  0  0  0  0  0  0  0  0  0
    2.6283   20.6107    0.8899 H   0  0  0  0  0  0  0  0  0  0  0  0
    1.5816   20.5209   -0.6064 H   0  0  0  0  0  0  0  0  0  0  0  0
    0.6329   18.5783    1.2515 H   0  0  0  0  0  0  0  0  0  0  0  0
    0.8371   20.1553    2.1223 H   0  0  0  0  0  0  0  0  0  0  0  0
    0.0248   20.8809   -0.1169 H   0  0  0  0  0  0  0  0  0  0  0  0
   -1.7802   17.7513    1.6867 H   0  0  0  0  0  0  0  0  0  0  0  0
   -2.6820   17.4019    0.1730 H   0  0  0  0  0  0  0  0  0  0  0  0
   -0.8858   17.3834    0.1730 H   0  0  0  0  0  0  0  0  0  0  0  0
   -3.6387   20.1860   -0.2931 H   0  0  0  0  0  0  0  0  0  0  0  0
   -2.2856   20.5529   -1.4161 H   0  0  0  0  0  0  0  0  0  0  0  0
   -3.0353   18.9205   -1.4161 H   0  0  0  0  0  0  0  0  0  0  0  0
    1.3596   17.4097    0.5065 H   0  0  0  0  0  0  0  0  0  0  0  0
   -0.2756   18.3784   -0.9837 H   0  0  0  0  0  0  0  0  0  0  0  0
    0.9703   18.8944   -2.1404 H   0  0  0  0  0  0  0  0  0  0  0  0
   -0.7732   16.6536   -2.4674 H   0  0  0  0  0  0  0  0  0  0  0  0
    0.6833   16.9182   -3.4221 H   0  0  0  0  0  0  0  0  0  0  0  0
    0.4483   15.4269    0.4646 H   0  0  0  0  0  0  0  0  0  0  0  0
   -0.9272   15.8620   -0.6056 H   0  0  0  0  0  0  0  0  0  0  0  0
   -0.2849   14.1845   -0.6056 H   0  0  0  0  0  0  0  0  0  0  0  0
    1.9426   14.8512   -3.3402 H   0  0  0  0  0  0  0  0  0  0  0  0
   -0.5967   14.4206   -3.3917 H   0  0  0  0  0  0  0  0  0  0  0  0
    0.5901   13.2060   -4.1018 H   0  0  0  0  0  0  0  0  0  0  0  0
   -1.4110   12.2043   -2.7116 H   0  0  0  0  0  0  0  0  0  0  0  0
    1.4274   12.9333    0.0640 H   0  0  0  0  0  0  0  0  0  0  0  0
    2.5077   10.5194   -1.5182 H   0  0  0  0  0  0  0  0  0  0  0  0
    3.3172   11.3616   -0.1234 H   0  0  0  0  0  0  0  0  0  0  0  0
    2.2574    9.2315    0.5564 H   0  0  0  0  0  0  0  0  0  0  0  0
    1.5306   10.6728    1.3691 H   0  0  0  0  0  0  0  0  0  0  0  0
   -0.2357    9.1902    0.7038 H   0  0  0  0  0  0  0  0  0  0  0  0
    1.3700    8.9510   -1.5150 H   0  0  0  0  0  0  0  0  0  0  0  0
   -0.7055   11.0905    1.7371 H   0  0  0  0  0  0  0  0  0  0  0  0
   -0.5990   12.6793    0.9058 H   0  0  0  0  0  0  0  0  0  0  0  0
   -2.1468   11.7676    0.9058 H   0  0  0  0  0  0  0  0  0  0  0  0
   -2.6459   10.1405   -0.2852 H   0  0  0  0  0  0  0  0  0  0  0  0
   -2.3904   11.2152   -1.7017 H   0  0  0  0  0  0  0  0  0  0  0  0
   -1.7108    9.5524   -1.7017 H   0  0  0  0  0  0  0  0  0  0  0  0
    3.7638   11.8552   -2.4796 H   0  0  0  0  0  0  0  0  0  0  0  0
    2.3379   12.0574   -3.5532 H   0  0  0  0  0  0  0  0  0  0  0  0
    3.6443   13.2903   -3.5532 H   0  0  0  0  0  0  0  0  0  0  0  0
    3.8174   13.3737   -0.2074 H   0  0  0  0  0  0  0  0  0  0  0  0
    4.2042   14.4122   -1.6931 H   0  0  0  0  0  0  0  0  0  0  0  0
    2.3811   15.1092    0.6258 H   0  0  0  0  0  0  0  0  0  0  0  0
    3.9486   15.8747    0.1532 H   0  0  0  0  0  0  0  0  0  0  0  0
    4.2153   17.1487   -1.8401 H   0  0  0  0  0  0  0  0  0  0  0  0
    3.5264   15.8806   -2.9098 H   0  0  0  0  0  0  0  0  0  0  0  0
    2.8246   17.5342   -2.9098 H   0  0  0  0  0  0  0  0  0  0  0  0
  1  2  1  0
  2  3  1  0
  3  4  1  0
  4  5  1  0
  5  6  1  0
  6  7  1  0
  7  8  1  0
  7  9  1  0
  2 10  1  0
 10 11  1  0
 11 12  1  0
 12 13  1  0
 13 14  1  1
 13 15  1  0
 15 16  1  0
 16 17  1  0
 17 18  2  0
 18 19  1  0
 19 20  1  0
 20 21  1  0
 21 22  1  0
 22 23  1  0
 22 24  1  0
 24 25  1  0
 24 26  1  0
 19 27  1  0
 27 28  1  6
 27 29  1  0
 29 30  1  0
 30 31  1  0
 31 32  1  6
  7  5  1  0
 31 10  1  0
 31 13  1  0
 27 15  1  0
 24 18  1  0
  1 33  1  0
  1 34  1  0
  1 35  1  0
  2 36  1  6
  3 37  1  0
  3 38  1  0
  4 39  1  0
  4 40  1  0
  5 41  1  6
  8 42  1  0
  8 43  1  0
  8 44  1  0
  9 45  1  0
  9 46  1  0
  9 47  1  0
 10 48  1  1
 11 49  1  0
 11 50  1  0
 12 51  1  0
 12 52  1  0
 14 53  1  0
 14 54  1  0
 14 55  1  0
 15 56  1  6
 16 57  1  0
 16 58  1  0
 17 59  1  0
 19 60  1  1
 20 61  1  0
 20 62  1  0
 21 63  1  0
 21 64  1  0
 22 65  1  1
 23 66  1  0
 25 67  1  0
 25 68  1  0
 25 69  1  0
 26 70  1  0
 26 71  1  0
 26 72  1  0
 28 73  1  0
 28 74  1  0
 28 75  1  0
 29 76  1  0
 29 77  1  0
 30 78  1  0
 30 79  1  0
 32 80  1  0
 32 81  1  0
 32 82  1  0
M  END
>  <meeko>  (6) 
{"is_sidechain": [false], "intermolecular_energy": 2.731, "internal_energy": -0.839}

$$$$
EPH_relaxed_0001_pdb2pqr_Repair_89_r2_0001_out
     RDKit          3D

 82 86  0  0  0  0  0  0  0  0999 V2000
    0.0580   10.3680   -3.4770 C   0  0  0  0  0  0  0  0  0  0  0  0
    1.1160   10.1980   -2.3830 C   0  0  2  0  0  0  0  0  0  0  0  0
    0.8450    8.9640   -1.5000 C   0  0  0  0  0  0  0  0  0  0  0  0
    0.0380    9.2760   -0.2370 C   0  0  0  0  0  0  0  0  0  0  0  0
   -1.3650    8.7580   -0.3320 C   0  0  2  0  0  0  0  0  0  0  0  0
   -1.9450    8.8380   -1.6410 O   0  0  0  0  0  0  0  0  0  0  0  0
   -2.5650    9.6400   -0.6220 C   0  0  0  0  0  0  0  0  0  0  0  0
   -2.4170   11.1140   -0.8330 C   0  0  0  0  0  0  0  0  0  0  0  0
   -3.9230    9.1560   -0.2170 C   0  0  0  0  0  0  0  0  0  0  0  0
    1.1780   11.4530   -1.5210 C   0  0  1  0  0  0  0  0  0  0  0  0
    2.2530   11.3590   -0.4060 C   0  0  0  0  0  0  0  0  0  0  0  0
    2.8380   12.7840   -0.2270 C   0  0  0  0  0  0  0  0  0  0  0  0
    1.8620   13.7050   -0.9970 C   0  0  1  0  0  0  0  0  0  0  0  0
    0.6700   13.9350   -0.0160 C   0  0  0  0  0  0  0  0  0  0  0  0
    2.4520   15.0570   -1.5150 C   0  0  2  0  0  0  0  0  0  0  0  0
    2.9490   16.0150   -0.4190 C   0  0  0  0  0  0  0  0  0  0  0  0
    1.9310   16.9790    0.0940 C   0  0  0  0  0  0  0  0  0  0  0  0
    0.7580   17.2670   -0.4990 C   0  0  0  0  0  0  0  0  0  0  0  0
    0.3970   16.6680   -1.8640 C   0  0  1  0  0  0  0  0  0  0  0  0
   -0.1590   17.7830   -2.7890 C   0  0  0  0  0  0  0  0  0  0  0  0
   -1.3240   18.5390   -2.1570 C   0  0  0  0  0  0  0  0  0  0  0  0
   -0.9100   19.1690   -0.8300 C   0  0  2  0  0  0  0  0  0  0  0  0
    0.0540   20.1940   -1.0880 O   0  0  0  0  0  0  0  0  0  0  0  0
   -0.3250   18.1430    0.1790 C   0  0  0  0  0  0  0  0  0  0  0  0
   -1.4530   17.2130    0.6890 C   0  0  0  0  0  0  0  0  0  0  0  0
    0.1830   18.9290    1.4190 C   0  0  0  0  0  0  0  0  0  0  0  0
    1.5330   15.8050   -2.5640 C   0  0  1  0  0  0  0  0  0  0  0  0
    2.4710   16.7330   -3.3950 C   0  0  0  0  0  0  0  0  0  0  0  0
    0.8670   14.8140   -3.5900 C   0  0  0  0  0  0  0  0  0  0  0  0
    0.4140   13.4470   -3.0420 C   0  0  0  0  0  0  0  0  0  0  0  0
    1.5300   12.7850   -2.2280 C   0  0  2  0  0  0  0  0  0  0  0  0
    2.7350   12.5220   -3.1940 C   0  0  0  0  0  0  0  0  0  0  0  0
   -0.9268   10.5262   -3.0132 H   0  0  0  0  0  0  0  0  0  0  0  0
    0.3129   11.2367   -4.1018 H   0  0  0  0  0  0  0  0  0  0  0  0
    0.0279    9.4632   -4.1018 H   0  0  0  0  0  0  0  0  0  0  0  0
    2.0845   10.0408   -2.8803 H   0  0  0  0  0  0  0  0  0  0  0  0
    0.2866    8.2267   -2.0955 H   0  0  0  0  0  0  0  0  0  0  0  0
    1.8231    8.5835   -1.1706 H   0  0  0  0  0  0  0  0  0  0  0  0
    0.5329    8.8078    0.6267 H   0  0  0  0  0  0  0  0  0  0  0  0
   -0.0077   10.3689   -0.1213 H   0  0  0  0  0  0  0  0  0  0  0  0
   -1.1690    8.0148    0.4549 H   0  0  0  0  0  0  0  0  0  0  0  0
   -2.3661   11.6207    0.1420 H   0  0  0  0  0  0  0  0  0  0  0  0
   -1.4944   11.3127   -1.3981 H   0  0  0  0  0  0  0  0  0  0  0  0
   -3.2817   11.4922   -1.3981 H   0  0  0  0  0  0  0  0  0  0  0  0
   -3.9913    9.1317    0.8806 H   0  0  0  0  0  0  0  0  0  0  0  0
   -4.6891    9.8364   -0.6171 H   0  0  0  0  0  0  0  0  0  0  0  0
   -4.0861    8.1444   -0.6171 H   0  0  0  0  0  0  0  0  0  0  0  0
    0.1386   11.4814   -1.1621 H   0  0  0  0  0  0  0  0  0  0  0  0
    1.7951   11.0168    0.5338 H   0  0  0  0  0  0  0  0  0  0  0  0
    3.0404   10.6400   -0.6762 H   0  0  0  0  0  0  0  0  0  0  0  0
    2.8731   13.0586    0.8376 H   0  0  0  0  0  0  0  0  0  0  0  0
    3.8693   12.8621   -0.6017 H   0  0  0  0  0  0  0  0  0  0  0  0
    1.0300   13.8655    1.0211 H   0  0  0  0  0  0  0  0  0  0  0  0
    0.2401   14.9327   -0.1889 H   0  0  0  0  0  0  0  0  0  0  0  0
   -0.1002   13.1689   -0.1889 H   0  0  0  0  0  0  0  0  0  0  0  0
    3.3525   14.7298   -2.0553 H   0  0  0  0  0  0  0  0  0  0  0  0
    3.3007   15.4087    0.4287 H   0  0  0  0  0  0  0  0  0  0  0  0
    3.7391   16.6242   -0.8822 H   0  0  0  0  0  0  0  0  0  0  0  0
    2.1592   17.4979    1.0367 H   0  0  0  0  0  0  0  0  0  0  0  0
   -0.3856   15.9197   -1.6702 H   0  0  0  0  0  0  0  0  0  0  0  0
    0.6490   18.4972   -3.0057 H   0  0  0  0  0  0  0  0  0  0  0  0
   -0.5304   17.3024   -3.7061 H   0  0  0  0  0  0  0  0  0  0  0  0
   -1.6539   19.3318   -2.8445 H   0  0  0  0  0  0  0  0  0  0  0  0
   -2.1423   17.8285   -1.9681 H   0  0  0  0  0  0  0  0  0  0  0  0
   -1.8162   19.5839   -0.3645 H   0  0  0  0  0  0  0  0  0  0  0  0
   -0.4150   20.9460   -1.4890 H   0  0  0  0  0  0  0  0  0  0  0  0
   -1.4566   17.2101    1.7890 H   0  0  0  0  0  0  0  0  0  0  0  0
   -2.4233   17.5771    0.3202 H   0  0  0  0  0  0  0  0  0  0  0  0
   -1.2806   16.1911    0.3202 H   0  0  0  0  0  0  0  0  0  0  0  0
   -0.1464   18.4193    2.3364 H   0  0  0  0  0  0  0  0  0  0  0  0
    1.2819   18.9746    1.3993 H   0  0  0  0  0  0  0  0  0  0  0  0
   -0.2267   19.9496    1.3993 H   0  0  0  0  0  0  0  0  0  0  0  0
    3.0845   17.3399   -2.7128 H   0  0  0  0  0  0  0  0  0  0  0  0
    3.1268   16.1184   -4.0292 H   0  0  0  0  0  0  0  0  0  0  0  0
    1.8634   17.3953   -4.0292 H   0  0  0  0  0  0  0  0  0  0  0  0
   -0.0184   15.3144   -4.0091 H   0  0  0  0  0  0  0  0  0  0  0  0
    1.6559   14.5838   -4.3212 H   0  0  0  0  0  0  0  0  0  0  0  0
   -0.4649   13.5915   -2.3965 H   0  0  0  0  0  0  0  0  0  0  0  0
    0.1650   12.7939   -3.8914 H   0  0  0  0  0  0  0  0  0  0  0  0
    3.6418   12.3241   -2.6036 H   0  0  0  0  0  0  0  0  0  0  0  0
    2.5131   11.6511   -3.8283 H   0  0  0  0  0  0  0  0  0  0  0  0
    2.8962   13.4061   -3.8283 H   0  0  0  0  0  0  0  0  0  0  0  0
  1  2  1  0
  2  3  1  0
  3  4  1  0
  4  5  1  0
  5  6  1  0
  6  7  1  0
  7  8  1  0
  7  9  1  0
  2 10  1  0
 10 11  1  0
 11 12  1  0
 12 13  1  0
 13 14  1  1
 13 15  1  0
 15 16  1  0
 16 17  1  0
 17 18  2  0
 18 19  1  0
 19 20  1  0
 20 21  1  0
 21 22  1  0
 22 23  1  0
 22 24  1  0
 24 25  1  0
 24 26  1  0
 19 27  1  0
 27 28  1  6
 27 29  1  0
 29 30  1  0
 30 31  1  0
 31 32  1  6
  7  5  1  0
 31 10  1  0
 31 13  1  0
 27 15  1  0
 24 18  1  0
  1 33  1  0
  1 34  1  0
  1 35  1  0
  2 36  1  6
  3 37  1  0
  3 38  1  0
  4 39  1  0
  4 40  1  0
  5 41  1  1
  8 42  1  0
  8 43  1  0
  8 44  1  0
  9 45  1  0
  9 46  1  0
  9 47  1  0
 10 48  1  1
 11 49  1  0
 11 50  1  0
 12 51  1  0
 12 52  1  0
 14 53  1  0
 14 54  1  0
 14 55  1  0
 15 56  1  6
 16 57  1  0
 16 58  1  0
 17 59  1  0
 19 60  1  1
 20 61  1  0
 20 62  1  0
 21 63  1  0
 21 64  1  0
 22 65  1  1
 23 66  1  0
 25 67  1  0
 25 68  1  0
 25 69  1  0
 26 70  1  0
 26 71  1  0
 26 72  1  0
 28 73  1  0
 28 74  1  0
 28 75  1  0
 29 76  1  0
 29 77  1  0
 30 78  1  0
 30 79  1  0
 32 80  1  0
 32 81  1  0
 32 82  1  0
M  END
>  <meeko>  (7) 
{"is_sidechain": [false], "intermolecular_energy": 2.731, "internal_energy": -0.839}

$$$$
EPH_relaxed_0001_pdb2pqr_Repair_89_r2_0001_out
     RDKit          3D

 82 86  0  0  0  0  0  0  0  0999 V2000
    0.4510    8.7940   -2.3590 C   0  0  0  0  0  0  0  0  0  0  0  0
    1.1870    9.9360   -3.0660 C   0  0  2  0  0  0  0  0  0  0  0  0
    2.6890    9.9610   -2.7200 C   0  0  0  0  0  0  0  0  0  0  0  0
    3.5590   10.6040   -3.8030 C   0  0  0  0  0  0  0  0  0  0  0  0
    4.9590   10.8400   -3.3220 C   0  0  2  0  0  0  0  0  0  0  0  0
    5.5640   12.0460   -3.8060 O   0  0  0  0  0  0  0  0  0  0  0  0
    6.1720   10.8160   -4.2330 C   0  0  0  0  0  0  0  0  0  0  0  0
    6.0410   10.5490   -5.7000 C   0  0  0  0  0  0  0  0  0  0  0  0
    7.5180   10.5670   -3.6260 C   0  0  0  0  0  0  0  0  0  0  0  0
    0.5460   11.2710   -2.7030 C   0  0  1  0  0  0  0  0  0  0  0  0
   -0.8310   11.1030   -2.0070 C   0  0  0  0  0  0  0  0  0  0  0  0
   -0.9480   12.2460   -0.9660 C   0  0  0  0  0  0  0  0  0  0  0  0
    0.2010   13.2180   -1.3230 C   0  0  1  0  0  0  0  0  0  0  0  0
   -0.3490   14.0710   -2.5080 C   0  0  0  0  0  0  0  0  0  0  0  0
    0.7300   14.1180   -0.1590 C   0  0  2  0  0  0  0  0  0  0  0  0
   -0.3010   15.0960    0.4300 C   0  0  0  0  0  0  0  0  0  0  0  0
   -0.3460   16.4410   -0.2160 C   0  0  0  0  0  0  0  0  0  0  0  0
    0.5960   16.9490   -1.0330 C   0  0  0  0  0  0  0  0  0  0  0  0
    1.8980   16.1840   -1.3040 C   0  0  1  0  0  0  0  0  0  0  0  0
    3.1030   17.1520   -1.1760 C   0  0  0  0  0  0  0  0  0  0  0  0
    2.9570   18.3880   -2.0600 C   0  0  0  0  0  0  0  0  0  0  0  0
    1.6810   19.1530   -1.7200 C   0  0  2  0  0  0  0  0  0  0  0  0
    1.8060   19.6960   -0.4020 O   0  0  0  0  0  0  0  0  0  0  0  0
    0.4000   18.2760   -1.8050 C   0  0  0  0  0  0  0  0  0  0  0  0
    0.0990   17.9370   -3.2860 C   0  0  0  0  0  0  0  0  0  0  0  0
   -0.7960   19.1290   -1.3030 C   0  0  0  0  0  0  0  0  0  0  0  0
    2.1010   14.8440   -0.4740 C   0  0  1  0  0  0  0  0  0  0  0  0
    2.7610   15.1650    0.9020 C   0  0  0  0  0  0  0  0  0  0  0  0
    3.1100   13.9110   -1.2420 C   0  0  0  0  0  0  0  0  0  0  0  0
    2.5110   12.9590   -2.2950 C   0  0  0  0  0  0  0  0  0  0  0  0
    1.3190   12.1870   -1.7210 C   0  0  2  0  0  0  0  0  0  0  0  0
    1.8460   11.3010   -0.5410 C   0  0  0  0  0  0  0  0  0  0  0  0
    0.5341    8.9230   -1.2698 H   0  0  0  0  0  0  0  0  0  0  0  0
   -0.6098    8.8059   -2.6497 H   0  0  0  0  0  0  0  0  0  0  0  0
    0.9001    7.8328   -2.6497 H   0  0  0  0  0  0  0  0  0  0  0  0
    1.1010    9.7647   -4.1492 H   0  0  0  0  0  0  0  0  0  0  0  0
    2.8210   10.5277   -1.7865 H   0  0  0  0  0  0  0  0  0  0  0  0
    3.0146    8.9146   -2.6251 H   0  0  0  0  0  0  0  0  0  0  0  0
    3.5901    9.9375   -4.6775 H   0  0  0  0  0  0  0  0  0  0  0  0
    3.1177   11.5771   -4.0644 H   0  0  0  0  0  0  0  0  0  0  0  0
    4.7414   10.3346   -2.3695 H   0  0  0  0  0  0  0  0  0  0  0  0
    5.5612    9.5711   -5.8533 H   0  0  0  0  0  0  0  0  0  0  0  0
    5.4264   11.3355   -6.1624 H   0  0  0  0  0  0  0  0  0  0  0  0
    7.0391   10.5442   -6.1624 H   0  0  0  0  0  0  0  0  0  0  0  0
    7.4342   10.5825   -2.5293 H   0  0  0  0  0  0  0  0  0  0  0  0
    7.8909    9.5846   -3.9514 H   0  0  0  0  0  0  0  0  0  0  0  0
    8.2177   11.3510   -3.9514 H   0  0  0  0  0  0  0  0  0  0  0  0
    0.5082   11.7346   -3.6998 H   0  0  0  0  0  0  0  0  0  0  0  0
   -1.6414   11.1800   -2.7469 H   0  0  0  0  0  0  0  0  0  0  0  0
   -0.9118   10.1183   -1.5234 H   0  0  0  0  0  0  0  0  0  0  0  0
   -1.9225   12.7493   -1.0498 H   0  0  0  0  0  0  0  0  0  0  0  0
   -0.8765   11.8775    0.0680 H   0  0  0  0  0  0  0  0  0  0  0  0
   -0.9051   14.9335   -2.1118 H   0  0  0  0  0  0  0  0  0  0  0  0
    0.4900   14.4272   -3.1238 H   0  0  0  0  0  0  0  0  0  0  0  0
   -1.0197   13.4538   -3.1238 H   0  0  0  0  0  0  0  0  0  0  0  0
    0.9317   13.3835    0.6346 H   0  0  0  0  0  0  0  0  0  0  0  0
   -1.2969   14.6390    0.3332 H   0  0  0  0  0  0  0  0  0  0  0  0
    0.0050   15.2693    1.4723 H   0  0  0  0  0  0  0  0  0  0  0  0
   -1.2234   17.0706   -0.0068 H   0  0  0  0  0  0  0  0  0  0  0  0
    1.8239   15.8143   -2.3373 H   0  0  0  0  0  0  0  0  0  0  0  0
    3.1855   17.4757   -0.1280 H   0  0  0  0  0  0  0  0  0  0  0  0
    4.0026   16.6108   -1.5044 H   0  0  0  0  0  0  0  0  0  0  0  0
    3.8241   19.0467   -1.9042 H   0  0  0  0  0  0  0  0  0  0  0  0
    2.9038   18.0648   -3.1101 H   0  0  0  0  0  0  0  0  0  0  0  0
    1.5652   19.9507   -2.4685 H   0  0  0  0  0  0  0  0  0  0  0  0
    1.1240   20.3810   -0.3010 H   0  0  0  0  0  0  0  0  0  0  0  0
   -0.6307   17.1152   -3.3330 H   0  0  0  0  0  0  0  0  0  0  0  0
   -0.3147   18.8238   -3.7884 H   0  0  0  0  0  0  0  0  0  0  0  0
    1.0286   17.6312   -3.7884 H   0  0  0  0  0  0  0  0  0  0  0  0
   -0.8054   19.1357   -0.2031 H   0  0  0  0  0  0  0  0  0  0  0  0
   -0.6935   20.1591   -1.6751 H   0  0  0  0  0  0  0  0  0  0  0  0
   -1.7365   18.6966   -1.6751 H   0  0  0  0  0  0  0  0  0  0  0  0
    2.0933   14.8402    1.7136 H   0  0  0  0  0  0  0  0  0  0  0  0
    3.7205   14.6329    0.9815 H   0  0  0  0  0  0  0  0  0  0  0  0
    2.9348   16.2483    0.9815 H   0  0  0  0  0  0  0  0  0  0  0  0
    3.8380   14.5577   -1.7537 H   0  0  0  0  0  0  0  0  0  0  0  0
    3.5393   13.2544   -0.4709 H   0  0  0  0  0  0  0  0  0  0  0  0
    2.1752   13.5468   -3.1620 H   0  0  0  0  0  0  0  0  0  0  0  0
    3.2846   12.2371   -2.5956 H   0  0  0  0  0  0  0  0  0  0  0  0
    1.5701   11.7649    0.4175 H   0  0  0  0  0  0  0  0  0  0  0  0
    1.3970   10.2989   -0.6060 H   0  0  0  0  0  0  0  0  0  0  0  0
    2.9409   11.2172   -0.6060 H   0  0  0  0  0  0  0  0  0  0  0  0
  1  2  1  0
  2  3  1  0
  3  4  1  0
  4  5  1  0
  5  6  1  0
  6  7  1  0
  7  8  1  0
  7  9  1  0
  2 10  1  0
 10 11  1  0
 11 12  1  0
 12 13  1  0
 13 14  1  6
 13 15  1  0
 15 16  1  0
 16 17  1  0
 17 18  2  0
 18 19  1  0
 19 20  1  0
 20 21  1  0
 21 22  1  0
 22 23  1  0
 22 24  1  0
 24 25  1  0
 24 26  1  0
 19 27  1  0
 27 28  1  1
 27 29  1  0
 29 30  1  0
 30 31  1  0
 31 32  1  1
  7  5  1  0
 31 10  1  0
 31 13  1  0
 27 15  1  0
 24 18  1  0
  1 33  1  0
  1 34  1  0
  1 35  1  0
  2 36  1  6
  3 37  1  0
  3 38  1  0
  4 39  1  0
  4 40  1  0
  5 41  1  1
  8 42  1  0
  8 43  1  0
  8 44  1  0
  9 45  1  0
  9 46  1  0
  9 47  1  0
 10 48  1  6
 11 49  1  0
 11 50  1  0
 12 51  1  0
 12 52  1  0
 14 53  1  0
 14 54  1  0
 14 55  1  0
 15 56  1  1
 16 57  1  0
 16 58  1  0
 17 59  1  0
 19 60  1  6
 20 61  1  0
 20 62  1  0
 21 63  1  0
 21 64  1  0
 22 65  1  6
 23 66  1  0
 25 67  1  0
 25 68  1  0
 25 69  1  0
 26 70  1  0
 26 71  1  0
 26 72  1  0
 28 73  1  0
 28 74  1  0
 28 75  1  0
 29 76  1  0
 29 77  1  0
 30 78  1  0
 30 79  1  0
 32 80  1  0
 32 81  1  0
 32 82  1  0
M  END
>  <meeko>  (8) 
{"is_sidechain": [false], "intermolecular_energy": 2.731, "internal_energy": -0.839}

$$$$
EPH_relaxed_0001_pdb2pqr_Repair_89_r2_0001_out
     RDKit          3D

 82 86  0  0  0  0  0  0  0  0999 V2000
    3.1160   19.0290   -1.2310 C   0  0  0  0  0  0  0  0  0  0  0  0
    1.6320   18.9910   -0.8570 C   0  0  2  0  0  0  0  0  0  0  0  0
    1.3000   19.9530    0.3020 C   0  0  0  0  0  0  0  0  0  0  0  0
    1.9670   19.5730    1.6270 C   0  0  0  0  0  0  0  0  0  0  0  0
    3.4610   19.6560    1.5400 C   0  0  2  0  0  0  0  0  0  0  0  0
    4.1510   18.4590    1.9220 O   0  0  0  0  0  0  0  0  0  0  0  0
    4.3730   19.6110    2.7510 C   0  0  0  0  0  0  0  0  0  0  0  0
    3.8240   19.4790    4.1370 C   0  0  0  0  0  0  0  0  0  0  0  0
    5.7510   20.1840    2.6310 C   0  0  0  0  0  0  0  0  0  0  0  0
    1.2250   17.5700   -0.4870 C   0  0  1  0  0  0  0  0  0  0  0  0
   -0.1050   17.5170    0.3110 C   0  0  0  0  0  0  0  0  0  0  0  0
   -0.8370   16.2220   -0.1240 C   0  0  0  0  0  0  0  0  0  0  0  0
    0.2300   15.4120   -0.8970 C   0  0  1  0  0  0  0  0  0  0  0  0
    1.0800   14.7100    0.2090 C   0  0  0  0  0  0  0  0  0  0  0  0
   -0.3070   14.3870   -1.9490 C   0  0  2  0  0  0  0  0  0  0  0  0
   -1.1690   13.2510   -1.3710 C   0  0  0  0  0  0  0  0  0  0  0  0
   -0.4210   12.0220   -0.9730 C   0  0  0  0  0  0  0  0  0  0  0  0
    0.8420   11.7240   -1.3330 C   0  0  0  0  0  0  0  0  0  0  0  0
    1.6170   12.6230   -2.3050 C   0  0  1  0  0  0  0  0  0  0  0  0
    2.3080   11.7470   -3.3820 C   0  0  0  0  0  0  0  0  0  0  0  0
    3.1830   10.6550   -2.7740 C   0  0  0  0  0  0  0  0  0  0  0  0
    2.3650    9.7470   -1.8590 C   0  0  2  0  0  0  0  0  0  0  0  0
    1.4250    9.0180   -2.6540 O   0  0  0  0  0  0  0  0  0  0  0  0
    1.6140   10.5200   -0.7400 C   0  0  0  0  0  0  0  0  0  0  0  0
    2.6340   11.0590    0.2940 C   0  0  0  0  0  0  0  0  0  0  0  0
    0.7170    9.5070    0.0220 C   0  0  0  0  0  0  0  0  0  0  0  0
    0.7980   13.8310   -2.9350 C   0  0  1  0  0  0  0  0  0  0  0  0
    0.0500   13.3550   -4.2180 C   0  0  0  0  0  0  0  0  0  0  0  0
    1.8050   14.9490   -3.3980 C   0  0  0  0  0  0  0  0  0  0  0  0
    2.2050   16.0020   -2.3460 C   0  0  0  0  0  0  0  0  0  0  0  0
    0.9690   16.5780   -1.6490 C   0  0  2  0  0  0  0  0  0  0  0  0
    0.1060   17.3090   -2.7330 C   0  0  0  0  0  0  0  0  0  0  0  0
    3.7247   19.0446   -0.3149 H   0  0  0  0  0  0  0  0  0  0  0  0
    3.3678   18.1370   -1.8234 H   0  0  0  0  0  0  0  0  0  0  0  0
    3.3218   19.9327   -1.8234 H   0  0  0  0  0  0  0  0  0  0  0  0
    1.0610   19.3240   -1.7362 H   0  0  0  0  0  0  0  0  0  0  0  0
    1.6343   20.9628    0.0219 H   0  0  0  0  0  0  0  0  0  0  0  0
    0.2130   19.9004    0.4623 H   0  0  0  0  0  0  0  0  0  0  0  0
    1.6170   20.2596    2.4120 H   0  0  0  0  0  0  0  0  0  0  0  0
    1.6947   18.5335    1.8620 H   0  0  0  0  0  0  0  0  0  0  0  0
    3.3960   20.3519    0.6906 H   0  0  0  0  0  0  0  0  0  0  0  0
    4.6233   19.6712    4.8678 H   0  0  0  0  0  0  0  0  0  0  0  0
    3.0126   20.2077    4.2809 H   0  0  0  0  0  0  0  0  0  0  0  0
    3.4325   18.4611    4.2809 H   0  0  0  0  0  0  0  0  0  0  0  0
    6.1652   20.3562    3.6354 H   0  0  0  0  0  0  0  0  0  0  0  0
    6.3949   19.4791    2.0847 H   0  0  0  0  0  0  0  0  0  0  0  0
    5.7053   21.1377    2.0847 H   0  0  0  0  0  0  0  0  0  0  0  0
    2.1176   17.2650    0.0789 H   0  0  0  0  0  0  0  0  0  0  0  0
    0.1022   17.4903    1.3910 H   0  0  0  0  0  0  0  0  0  0  0  0
   -0.7216   18.4054    0.1099 H   0  0  0  0  0  0  0  0  0  0  0  0
   -1.1893   15.6613    0.7543 H   0  0  0  0  0  0  0  0  0  0  0  0
   -1.7266   16.4311   -0.7362 H   0  0  0  0  0  0  0  0  0  0  0  0
    0.7132   15.0129    1.2008 H   0  0  0  0  0  0  0  0  0  0  0  0
    0.9908   13.6188    0.1026 H   0  0  0  0  0  0  0  0  0  0  0  0
    2.1347   15.0038    0.1026 H   0  0  0  0  0  0  0  0  0  0  0  0
   -0.9903   15.0031   -2.5519 H   0  0  0  0  0  0  0  0  0  0  0  0
   -1.6871   13.6368   -0.4806 H   0  0  0  0  0  0  0  0  0  0  0  0
   -1.8498   12.9445   -2.1788 H   0  0  0  0  0  0  0  0  0  0  0  0
   -0.9457   11.2987   -0.3315 H   0  0  0  0  0  0  0  0  0  0  0  0
    2.3769   13.1399   -1.7005 H   0  0  0  0  0  0  0  0  0  0  0  0
    1.5327   11.2733   -4.0020 H   0  0  0  0  0  0  0  0  0  0  0  0
    2.9587   12.4028   -3.9790 H   0  0  0  0  0  0  0  0  0  0  0  0
    3.6198   10.0514   -3.5832 H   0  0  0  0  0  0  0  0  0  0  0  0
    3.9759   11.1312   -2.1786 H   0  0  0  0  0  0  0  0  0  0  0  0
    3.0683    9.0691   -1.3533 H   0  0  0  0  0  0  0  0  0  0  0  0
    0.6790    8.7760   -2.0800 H   0  0  0  0  0  0  0  0  0  0  0  0
    2.2634   10.8632    1.3110 H   0  0  0  0  0  0  0  0  0  0  0  0
    3.6010   10.5542    0.1526 H   0  0  0  0  0  0  0  0  0  0  0  0
    2.7618   12.1424    0.1526 H   0  0  0  0  0  0  0  0  0  0  0  0
    0.8426    9.6488    1.1056 H   0  0  0  0  0  0  0  0  0  0  0  0
   -0.3359    9.6727   -0.2499 H   0  0  0  0  0  0  0  0  0  0  0  0
    1.0089    8.4819   -0.2499 H   0  0  0  0  0  0  0  0  0  0  0  0
   -0.8457   12.7850   -3.9301 H   0  0  0  0  0  0  0  0  0  0  0  0
   -0.2482   14.2298   -4.8144 H   0  0  0  0  0  0  0  0  0  0  0  0
    0.7162   12.7144   -4.8144 H   0  0  0  0  0  0  0  0  0  0  0  0
    2.7250   14.4493   -3.7354 H   0  0  0  0  0  0  0  0  0  0  0  0
    1.2725   15.5106   -4.1798 H   0  0  0  0  0  0  0  0  0  0  0  0
    2.8550   15.5306   -1.5942 H   0  0  0  0  0  0  0  0  0  0  0  0
    2.7348   16.8213   -2.8539 H   0  0  0  0  0  0  0  0  0  0  0  0
   -0.6436   17.9439   -2.2380 H   0  0  0  0  0  0  0  0  0  0  0  0
    0.7583   17.9335   -3.3611 H   0  0  0  0  0  0  0  0  0  0  0  0
   -0.4027   16.5629   -3.3611 H   0  0  0  0  0  0  0  0  0  0  0  0
  1  2  1  0
  2  3  1  0
  3  4  1  0
  4  5  1  0
  5  6  1  0
  6  7  1  0
  7  8  1  0
  7  9  1  0
  2 10  1  0
 10 11  1  0
 11 12  1  0
 12 13  1  0
 13 14  1  1
 13 15  1  0
 15 16  1  0
 16 17  1  0
 17 18  2  0
 18 19  1  0
 19 20  1  0
 20 21  1  0
 21 22  1  0
 22 23  1  0
 22 24  1  0
 24 25  1  0
 24 26  1  0
 19 27  1  0
 27 28  1  6
 27 29  1  0
 29 30  1  0
 30 31  1  0
 31 32  1  6
  7  5  1  0
 31 10  1  0
 31 13  1  0
 27 15  1  0
 24 18  1  0
  1 33  1  0
  1 34  1  0
  1 35  1  0
  2 36  1  6
  3 37  1  0
  3 38  1  0
  4 39  1  0
  4 40  1  0
  5 41  1  6
  8 42  1  0
  8 43  1  0
  8 44  1  0
  9 45  1  0
  9 46  1  0
  9 47  1  0
 10 48  1  1
 11 49  1  0
 11 50  1  0
 12 51  1  0
 12 52  1  0
 14 53  1  0
 14 54  1  0
 14 55  1  0
 15 56  1  6
 16 57  1  0
 16 58  1  0
 17 59  1  0
 19 60  1  1
 20 61  1  0
 20 62  1  0
 21 63  1  0
 21 64  1  0
 22 65  1  1
 23 66  1  0
 25 67  1  0
 25 68  1  0
 25 69  1  0
 26 70  1  0
 26 71  1  0
 26 72  1  0
 28 73  1  0
 28 74  1  0
 28 75  1  0
 29 76  1  0
 29 77  1  0
 30 78  1  0
 30 79  1  0
 32 80  1  0
 32 81  1  0
 32 82  1  0
M  END
>  <meeko>  (9) 
{"is_sidechain": [false], "intermolecular_energy": 2.731, "internal_energy": -0.839}

$$$$
EPH_relaxed_0001_pdb2pqr_Repair_89_r2_0001_out
     RDKit          3D

 82 86  0  0  0  0  0  0  0  0999 V2000
    2.6880   18.9850   -1.1150 C   0  0  0  0  0  0  0  0  0  0  0  0
    2.4460   17.9560   -2.2230 C   0  0  2  0  0  0  0  0  0  0  0  0
    1.0280   18.0650   -2.8170 C   0  0  0  0  0  0  0  0  0  0  0  0
    0.2830   19.3370   -2.4030 C   0  0  0  0  0  0  0  0  0  0  0  0
   -1.0140   19.0220   -1.7210 C   0  0  2  0  0  0  0  0  0  0  0  0
   -1.8220   20.1650   -1.4130 O   0  0  0  0  0  0  0  0  0  0  0  0
   -1.3250   19.4200   -0.2900 C   0  0  0  0  0  0  0  0  0  0  0  0
   -0.3330   20.1660    0.5460 C   0  0  0  0  0  0  0  0  0  0  0  0
   -2.3860   18.6640    0.4480 C   0  0  0  0  0  0  0  0  0  0  0  0
    2.6790   16.5490   -1.6850 C   0  0  1  0  0  0  0  0  0  0  0  0
    3.5100   16.5400   -0.3740 C   0  0  0  0  0  0  0  0  0  0  0  0
    2.9660   15.3760    0.4930 C   0  0  0  0  0  0  0  0  0  0  0  0
    2.0790   14.5540   -0.4710 C   0  0  1  0  0  0  0  0  0  0  0  0
    3.0770   13.6590   -1.2710 C   0  0  0  0  0  0  0  0  0  0  0  0
    0.9440   13.7050    0.1900 C   0  0  2  0  0  0  0  0  0  0  0  0
    1.4270   12.6020    1.1470 C   0  0  0  0  0  0  0  0  0  0  0  0
    1.6700   11.2710    0.5160 C   0  0  0  0  0  0  0  0  0  0  0  0
    1.2400   10.8930   -0.7020 C   0  0  0  0  0  0  0  0  0  0  0  0
    0.3430   11.8110   -1.5400 C   0  0  1  0  0  0  0  0  0  0  0  0
   -0.8420   10.9920   -2.1170 C   0  0  0  0  0  0  0  0  0  0  0  0
   -0.3790    9.7620   -2.8920 C   0  0  0  0  0  0  0  0  0  0  0  0
    0.4610    8.8440   -2.0080 C   0  0  2  0  0  0  0  0  0  0  0  0
   -0.3750    8.3000   -0.9820 O   0  0  0  0  0  0  0  0  0  0  0  0
    1.6790    9.5630   -1.3630 C   0  0  0  0  0  0  0  0  0  0  0  0
    2.7300    9.8860   -2.4540 C   0  0  0  0  0  0  0  0  0  0  0  0
    2.3600    8.5660   -0.3870 C   0  0  0  0  0  0  0  0  0  0  0  0
   -0.1310   13.1530   -0.8320 C   0  0  1  0  0  0  0  0  0  0  0  0
   -1.4310   12.8910   -0.0120 C   0  0  0  0  0  0  0  0  0  0  0  0
   -0.5070   14.2120   -1.9350 C   0  0  0  0  0  0  0  0  0  0  0  0
    0.6350   15.1020   -2.4620 C   0  0  0  0  0  0  0  0  0  0  0  0
    1.4290   15.7170   -1.3050 C   0  0  2  0  0  0  0  0  0  0  0  0
    0.4560   16.6400   -0.4960 C   0  0  0  0  0  0  0  0  0  0  0  0
    2.5742   18.5009   -0.1338 H   0  0  0  0  0  0  0  0  0  0  0  0
    3.7061   19.3910   -1.2076 H   0  0  0  0  0  0  0  0  0  0  0  0
    1.9575   19.8022   -1.2076 H   0  0  0  0  0  0  0  0  0  0  0  0
    3.1598   18.1674   -3.0328 H   0  0  0  0  0  0  0  0  0  0  0  0
    1.1091   18.0516   -3.9139 H   0  0  0  0  0  0  0  0  0  0  0  0
    0.4504   17.2134   -2.4282 H   0  0  0  0  0  0  0  0  0  0  0  0
    0.9175   19.9135   -1.7138 H   0  0  0  0  0  0  0  0  0  0  0  0
    0.0612   19.9159   -3.3117 H   0  0  0  0  0  0  0  0  0  0  0  0
   -1.0871   18.0617   -2.2525 H   0  0  0  0  0  0  0  0  0  0  0  0
   -0.5530   20.0006    1.6110 H   0  0  0  0  0  0  0  0  0  0  0  0
    0.6814   19.8051    0.3207 H   0  0  0  0  0  0  0  0  0  0  0  0
   -0.3982   21.2407    0.3207 H   0  0  0  0  0  0  0  0  0  0  0  0
   -2.2295   18.7755    1.5311 H   0  0  0  0  0  0  0  0  0  0  0  0
   -3.3752   19.0620    0.1775 H   0  0  0  0  0  0  0  0  0  0  0  0
   -2.3328   17.5991    0.1775 H   0  0  0  0  0  0  0  0  0  0  0  0
    3.1803   16.1002   -2.5552 H   0  0  0  0  0  0  0  0  0  0  0  0
    4.5740   16.3778   -0.6012 H   0  0  0  0  0  0  0  0  0  0  0  0
    3.4229   17.5004    0.1551 H   0  0  0  0  0  0  0  0  0  0  0  0
    3.7919   14.7613    0.8804 H   0  0  0  0  0  0  0  0  0  0  0  0
    2.4079   15.7346    1.3705 H   0  0  0  0  0  0  0  0  0  0  0  0
    3.7071   13.0940   -0.5683 H   0  0  0  0  0  0  0  0  0  0  0  0
    2.5139   12.9575   -1.9042 H   0  0  0  0  0  0  0  0  0  0  0  0
    3.7132   14.2949   -1.9042 H   0  0  0  0  0  0  0  0  0  0  0  0
    0.4332   14.4461    0.8223 H   0  0  0  0  0  0  0  0  0  0  0  0
    2.3690   12.9380    1.6049 H   0  0  0  0  0  0  0  0  0  0  0  0
    0.6137   12.4509    1.8720 H   0  0  0  0  0  0  0  0  0  0  0  0
    2.2495   10.5373    1.0955 H   0  0  0  0  0  0  0  0  0  0  0  0
    0.9734   12.1846   -2.3604 H   0  0  0  0  0  0  0  0  0  0  0  0
   -1.4827   10.6643   -1.2850 H   0  0  0  0  0  0  0  0  0  0  0  0
   -1.3885   11.6418   -2.8164 H   0  0  0  0  0  0  0  0  0  0  0  0
   -1.2602    9.2094   -3.2500 H   0  0  0  0  0  0  0  0  0  0  0  0
    0.2381   10.0934   -3.7401 H   0  0  0  0  0  0  0  0  0  0  0  0
    0.8689    8.0496   -2.6503 H   0  0  0  0  0  0  0  0  0  0  0  0
   -1.0240    8.9810   -0.7400 H   0  0  0  0  0  0  0  0  0  0  0  0
    3.6770   10.1770   -1.9761 H   0  0  0  0  0  0  0  0  0  0  0  0
    2.8935    8.9966   -3.0804 H   0  0  0  0  0  0  0  0  0  0  0  0
    2.3658   10.7137   -3.0804 H   0  0  0  0  0  0  0  0  0  0  0  0
    2.1531    8.8689    0.6500 H   0  0  0  0  0  0  0  0  0  0  0  0
    1.9631    7.5548   -0.5598 H   0  0  0  0  0  0  0  0  0  0  0  0
    3.4463    8.5679   -0.5598 H   0  0  0  0  0  0  0  0  0  0  0  0
   -1.2020   12.9371    1.0629 H   0  0  0  0  0  0  0  0  0  0  0  0
   -2.1815   13.6559   -0.2602 H   0  0  0  0  0  0  0  0  0  0  0  0
   -1.8266   11.8951   -0.2602 H   0  0  0  0  0  0  0  0  0  0  0  0
   -0.9253   13.6649   -2.7927 H   0  0  0  0  0  0  0  0  0  0  0  0
   -1.2071   14.9034   -1.4432 H   0  0  0  0  0  0  0  0  0  0  0  0
    1.3115   14.4919   -3.0786 H   0  0  0  0  0  0  0  0  0  0  0  0
    0.1984   15.9158   -3.0596 H   0  0  0  0  0  0  0  0  0  0  0  0
    0.6169   16.4874    0.5814 H   0  0  0  0  0  0  0  0  0  0  0  0
    0.6520   17.6920   -0.7506 H   0  0  0  0  0  0  0  0  0  0  0  0
   -0.5842   16.3888   -0.7506 H   0  0  0  0  0  0  0  0  0  0  0  0
  1  2  1  0
  2  3  1  0
  3  4  1  0
  4  5  1  0
  5  6  1  0
  6  7  1  0
  7  8  1  0
  7  9  1  0
  2 10  1  0
 10 11  1  0
 11 12  1  0
 12 13  1  0
 13 14  1  6
 13 15  1  0
 15 16  1  0
 16 17  1  0
 17 18  2  0
 18 19  1  0
 19 20  1  0
 20 21  1  0
 21 22  1  0
 22 23  1  0
 22 24  1  0
 24 25  1  0
 24 26  1  0
 19 27  1  0
 27 28  1  1
 27 29  1  0
 29 30  1  0
 30 31  1  0
 31 32  1  1
  7  5  1  0
 31 10  1  0
 31 13  1  0
 27 15  1  0
 24 18  1  0
  1 33  1  0
  1 34  1  0
  1 35  1  0
  2 36  1  6
  3 37  1  0
  3 38  1  0
  4 39  1  0
  4 40  1  0
  5 41  1  6
  8 42  1  0
  8 43  1  0
  8 44  1  0
  9 45  1  0
  9 46  1  0
  9 47  1  0
 10 48  1  6
 11 49  1  0
 11 50  1  0
 12 51  1  0
 12 52  1  0
 14 53  1  0
 14 54  1  0
 14 55  1  0
 15 56  1  1
 16 57  1  0
 16 58  1  0
 17 59  1  0
 19 60  1  6
 20 61  1  0
 20 62  1  0
 21 63  1  0
 21 64  1  0
 22 65  1  6
 23 66  1  0
 25 67  1  0
 25 68  1  0
 25 69  1  0
 26 70  1  0
 26 71  1  0
 26 72  1  0
 28 73  1  0
 28 74  1  0
 28 75  1  0
 29 76  1  0
 29 77  1  0
 30 78  1  0
 30 79  1  0
 32 80  1  0
 32 81  1  0
 32 82  1  0
M  END
>  <meeko>  (10) 
{"is_sidechain": [false], "intermolecular_energy": 2.731, "internal_energy": -0.839}

$$$$
EPH_relaxed_0001_pdb2pqr_Repair_89_r2_0001_out
     RDKit          3D

 82 86  0  0  0  0  0  0  0  0999 V2000
  -14.2660    9.7760    0.6910 C   0  0  0  0  0  0  0  0  0  0  0  0
  -13.5400    9.2790   -0.5630 C   0  0  2  0  0  0  0  0  0  0  0  0
  -14.4320    8.3640   -1.4260 C   0  0  0  0  0  0  0  0  0  0  0  0
  -14.6120    8.8590   -2.8630 C   0  0  0  0  0  0  0  0  0  0  0  0
  -15.2870   10.1960   -2.9090 C   0  0  2  0  0  0  0  0  0  0  0  0
  -14.9980   10.9730   -4.0780 O   0  0  0  0  0  0  0  0  0  0  0  0
  -14.5390   11.5140   -2.8280 C   0  0  0  0  0  0  0  0  0  0  0  0
  -13.0500   11.5580   -2.6940 C   0  0  0  0  0  0  0  0  0  0  0  0
  -15.2860   12.7350   -2.3890 C   0  0  0  0  0  0  0  0  0  0  0  0
  -12.2660    8.5430   -0.1670 C   0  0  1  0  0  0  0  0  0  0  0  0
  -12.4930    7.5340    0.9900 C   0  0  0  0  0  0  0  0  0  0  0  0
  -11.5550    6.3290    0.7240 C   0  0  0  0  0  0  0  0  0  0  0  0
  -10.5890    6.8230   -0.3790 C   0  0  1  0  0  0  0  0  0  0  0  0
   -9.5090    7.6570    0.3790 C   0  0  0  0  0  0  0  0  0  0  0  0
   -9.9400    5.7180   -1.2750 C   0  0  2  0  0  0  0  0  0  0  0  0
   -9.0400    4.7180   -0.5290 C   0  0  0  0  0  0  0  0  0  0  0  0
   -7.5990    5.0990   -0.4440 C   0  0  0  0  0  0  0  0  0  0  0  0
   -6.9950    6.0480   -1.1830 C   0  0  0  0  0  0  0  0  0  0  0  0
   -7.7570    6.7860   -2.2920 C   0  0  1  0  0  0  0  0  0  0  0  0
   -6.8850    6.8370   -3.5740 C   0  0  0  0  0  0  0  0  0  0  0  0
   -5.5040    7.4330   -3.3190 C   0  0  0  0  0  0  0  0  0  0  0  0
   -4.7550    6.6380   -2.2530 C   0  0  2  0  0  0  0  0  0  0  0  0
   -4.4680    5.3340   -2.7670 O   0  0  0  0  0  0  0  0  0  0  0  0
   -5.5410    6.5110   -0.9180 C   0  0  0  0  0  0  0  0  0  0  0  0
   -5.5910    7.8880   -0.2100 C   0  0  0  0  0  0  0  0  0  0  0  0
   -4.7400    5.5690    0.0210 C   0  0  0  0  0  0  0  0  0  0  0  0
   -9.2340    6.2730   -2.5780 C   0  0  1  0  0  0  0  0  0  0  0  0
   -9.1990    5.0960   -3.6010 C   0  0  0  0  0  0  0  0  0  0  0  0
  -10.0570    7.4290   -3.2590 C   0  0  0  0  0  0  0  0  0  0  0  0
  -10.7730    8.4180   -2.3200 C   0  0  0  0  0  0  0  0  0  0  0  0
  -11.5810    7.6740   -1.2520 C   0  0  2  0  0  0  0  0  0  0  0  0
  -12.6890    6.8430   -1.9830 C   0  0  0  0  0  0  0  0  0  0  0  0
  -13.7392    9.4154    1.5868 H   0  0  0  0  0  0  0  0  0  0  0  0
  -14.2827   10.8759    0.6933 H   0  0  0  0  0  0  0  0  0  0  0  0
  -15.2974    9.3936    0.6933 H   0  0  0  0  0  0  0  0  0  0  0  0
  -13.2866   10.1601   -1.1709 H   0  0  0  0  0  0  0  0  0  0  0  0
  -13.9756    7.3636   -1.4578 H   0  0  0  0  0  0  0  0  0  0  0  0
  -15.4290    8.3556   -0.9614 H   0  0  0  0  0  0  0  0  0  0  0  0
  -13.6232    8.9425   -3.3376 H   0  0  0  0  0  0  0  0  0  0  0  0
  -15.2464    8.1364   -3.3973 H   0  0  0  0  0  0  0  0  0  0  0  0
  -16.1530    9.8039   -2.3556 H   0  0  0  0  0  0  0  0  0  0  0  0
  -12.7778   11.5660   -1.6282 H   0  0  0  0  0  0  0  0  0  0  0  0
  -12.6120   10.6724   -3.1776 H   0  0  0  0  0  0  0  0  0  0  0  0
  -12.6651   12.4679   -3.1776 H   0  0  0  0  0  0  0  0  0  0  0  0
  -15.3102   12.7746   -1.2900 H   0  0  0  0  0  0  0  0  0  0  0  0
  -14.7822   13.6324   -2.7772 H   0  0  0  0  0  0  0  0  0  0  0  0
  -16.3144   12.6950   -2.7772 H   0  0  0  0  0  0  0  0  0  0  0  0
  -11.6279    9.4025    0.0862 H   0  0  0  0  0  0  0  0  0  0  0  0
  -12.2447    8.0015    1.9543 H   0  0  0  0  0  0  0  0  0  0  0  0
  -13.5444    7.2136    1.0336 H   0  0  0  0  0  0  0  0  0  0  0  0
  -10.9998    6.0605    1.6348 H   0  0  0  0  0  0  0  0  0  0  0  0
  -12.1087    5.4281    0.4210 H   0  0  0  0  0  0  0  0  0  0  0  0
   -9.6539    7.5451    1.4637 H   0  0  0  0  0  0  0  0  0  0  0  0
   -8.5071    7.2960    0.1038 H   0  0  0  0  0  0  0  0  0  0  0  0
   -9.6049    8.7177    0.1038 H   0  0  0  0  0  0  0  0  0  0  0  0
  -10.8146    5.1398   -1.6079 H   0  0  0  0  0  0  0  0  0  0  0  0
   -9.4251    4.6129    0.4960 H   0  0  0  0  0  0  0  0  0  0  0  0
   -9.0747    3.7845   -1.1099 H   0  0  0  0  0  0  0  0  0  0  0  0
   -6.9778    4.5579    0.2849 H   0  0  0  0  0  0  0  0  0  0  0  0
   -7.9282    7.8057   -1.9167 H   0  0  0  0  0  0  0  0  0  0  0  0
   -6.7619    5.8134   -3.9577 H   0  0  0  0  0  0  0  0  0  0  0  0
   -7.3983    7.4831   -4.3014 H   0  0  0  0  0  0  0  0  0  0  0  0
   -4.9256    7.4145   -4.2545 H   0  0  0  0  0  0  0  0  0  0  0  0
   -5.6279    8.4666   -2.9637 H   0  0  0  0  0  0  0  0  0  0  0  0
   -3.8301    7.1868   -2.0219 H   0  0  0  0  0  0  0  0  0  0  0  0
   -5.2270    5.0570   -3.3070 H   0  0  0  0  0  0  0  0  0  0  0  0
   -5.5856    7.7403    0.8800 H   0  0  0  0  0  0  0  0  0  0  0  0
   -4.7139    8.4833   -0.5036 H   0  0  0  0  0  0  0  0  0  0  0  0
   -6.5090    8.4182   -0.5036 H   0  0  0  0  0  0  0  0  0  0  0  0
   -4.9571    5.8244    1.0687 H   0  0  0  0  0  0  0  0  0  0  0  0
   -5.0319    4.5258   -0.1702 H   0  0  0  0  0  0  0  0  0  0  0  0
   -3.6635    5.6894   -0.1702 H   0  0  0  0  0  0  0  0  0  0  0  0
   -9.1706    4.1395   -3.0586 H   0  0  0  0  0  0  0  0  0  0  0  0
  -10.0986    5.1326   -4.2329 H   0  0  0  0  0  0  0  0  0  0  0  0
   -8.3031    5.1860   -4.2329 H   0  0  0  0  0  0  0  0  0  0  0  0
   -9.3621    8.0081   -3.8849 H   0  0  0  0  0  0  0  0  0  0  0  0
  -10.8621    6.9223   -3.8114 H   0  0  0  0  0  0  0  0  0  0  0  0
  -10.0225    9.0527   -1.8261 H   0  0  0  0  0  0  0  0  0  0  0  0
  -11.4633    9.0315   -2.9176 H   0  0  0  0  0  0  0  0  0  0  0  0
  -13.3357    6.3580   -1.2370 H   0  0  0  0  0  0  0  0  0  0  0  0
  -13.2937    7.5122   -2.6127 H   0  0  0  0  0  0  0  0  0  0  0  0
  -12.2159    6.0751   -2.6127 H   0  0  0  0  0  0  0  0  0  0  0  0
  1  2  1  0
  2  3  1  0
  3  4  1  0
  4  5  1  0
  5  6  1  0
  6  7  1  0
  7  8  1  0
  7  9  1  0
  2 10  1  0
 10 11  1  0
 11 12  1  0
 12 13  1  0
 13 14  1  1
 13 15  1  0
 15 16  1  0
 16 17  1  0
 17 18  2  0
 18 19  1  0
 19 20  1  0
 20 21  1  0
 21 22  1  0
 22 23  1  0
 22 24  1  0
 24 25  1  0
 24 26  1  0
 19 27  1  0
 27 28  1  6
 27 29  1  0
 29 30  1  0
 30 31  1  0
 31 32  1  6
  7  5  1  0
 31 10  1  0
 31 13  1  0
 27 15  1  0
 24 18  1  0
  1 33  1  0
  1 34  1  0
  1 35  1  0
  2 36  1  6
  3 37  1  0
  3 38  1  0
  4 39  1  0
  4 40  1  0
  5 41  1  1
  8 42  1  0
  8 43  1  0
  8 44  1  0
  9 45  1  0
  9 46  1  0
  9 47  1  0
 10 48  1  1
 11 49  1  0
 11 50  1  0
 12 51  1  0
 12 52  1  0
 14 53  1  0
 14 54  1  0
 14 55  1  0
 15 56  1  6
 16 57  1  0
 16 58  1  0
 17 59  1  0
 19 60  1  1
 20 61  1  0
 20 62  1  0
 21 63  1  0
 21 64  1  0
 22 65  1  1
 23 66  1  0
 25 67  1  0
 25 68  1  0
 25 69  1  0
 26 70  1  0
 26 71  1  0
 26 72  1  0
 28 73  1  0
 28 74  1  0
 28 75  1  0
 29 76  1  0
 29 77  1  0
 30 78  1  0
 30 79  1  0
 32 80  1  0
 32 81  1  0
 32 82  1  0
M  END
>  <meeko>  (11) 
{"is_sidechain": [false], "intermolecular_energy": 2.731, "internal_energy": -0.839}

$$$$
EPH_relaxed_0001_pdb2pqr_Repair_89_r2_0001_out
     RDKit          3D

 82 86  0  0  0  0  0  0  0  0999 V2000
   -0.9470   16.3960   -5.9140 C   0  0  0  0  0  0  0  0  0  0  0  0
    0.1670   15.7070   -6.7080 C   0  0  2  0  0  0  0  0  0  0  0  0
   -0.2130   15.5070   -8.1890 C   0  0  0  0  0  0  0  0  0  0  0  0
    0.4390   16.5200   -9.1340 C   0  0  0  0  0  0  0  0  0  0  0  0
    1.8450   16.1310   -9.4780 C   0  0  2  0  0  0  0  0  0  0  0  0
    2.3350   16.6830  -10.7070 O   0  0  0  0  0  0  0  0  0  0  0  0
    2.2040   15.2530  -10.6630 C   0  0  0  0  0  0  0  0  0  0  0  0
    1.1520   14.7090  -11.5780 C   0  0  0  0  0  0  0  0  0  0  0  0
    3.5130   14.5280  -10.6450 C   0  0  0  0  0  0  0  0  0  0  0  0
    0.5050   14.3640   -6.0710 C   0  0  1  0  0  0  0  0  0  0  0  0
    1.7340   13.6830   -6.7290 C   0  0  0  0  0  0  0  0  0  0  0  0
    2.4890   12.9360   -5.6000 C   0  0  0  0  0  0  0  0  0  0  0  0
    1.5030   12.9320   -4.4080 C   0  0  1  0  0  0  0  0  0  0  0  0
    0.5220   11.7540   -4.7030 C   0  0  0  0  0  0  0  0  0  0  0  0
    2.1400   12.8090   -2.9850 C   0  0  2  0  0  0  0  0  0  0  0  0
    2.9110   11.5030   -2.7260 C   0  0  0  0  0  0  0  0  0  0  0  0
    2.1020   10.3880   -2.1520 C   0  0  0  0  0  0  0  0  0  0  0  0
    0.8840   10.5130   -1.5930 C   0  0  0  0  0  0  0  0  0  0  0  0
    0.2400   11.8930   -1.4080 C   0  0  1  0  0  0  0  0  0  0  0  0
   -0.3400   12.0050    0.0270 C   0  0  0  0  0  0  0  0  0  0  0  0
   -1.2960   10.8650    0.3630 C   0  0  0  0  0  0  0  0  0  0  0  0
   -0.6030    9.5120    0.2230 C   0  0  2  0  0  0  0  0  0  0  0  0
    0.4100    9.4070    1.2290 O   0  0  0  0  0  0  0  0  0  0  0  0
    0.0290    9.2890   -1.1800 C   0  0  0  0  0  0  0  0  0  0  0  0
   -1.0920    9.1020   -2.2310 C   0  0  0  0  0  0  0  0  0  0  0  0
    0.8160    7.9520   -1.1410 C   0  0  0  0  0  0  0  0  0  0  0  0
    1.1450   13.1390   -1.8000 C   0  0  1  0  0  0  0  0  0  0  0  0
    2.0260   13.5600   -0.5840 C   0  0  0  0  0  0  0  0  0  0  0  0
    0.2160   14.3680   -2.1220 C   0  0  0  0  0  0  0  0  0  0  0  0
   -0.2830   14.5000   -3.5740 C   0  0  0  0  0  0  0  0  0  0  0  0
    0.8750   14.3640   -4.5670 C   0  0  2  0  0  0  0  0  0  0  0  0
    1.8680   15.5480   -4.3080 C   0  0  0  0  0  0  0  0  0  0  0  0
   -0.7565   16.2781   -4.8371 H   0  0  0  0  0  0  0  0  0  0  0  0
   -0.9698   17.4662   -6.1674 H   0  0  0  0  0  0  0  0  0  0  0  0
   -1.9147   15.9385   -6.1674 H   0  0  0  0  0  0  0  0  0  0  0  0
    1.0484   16.3645   -6.6796 H   0  0  0  0  0  0  0  0  0  0  0  0
    0.0984   14.4971   -8.4941 H   0  0  0  0  0  0  0  0  0  0  0  0
   -1.3009   15.6514   -8.2640 H   0  0  0  0  0  0  0  0  0  0  0  0
   -0.1523   16.5758  -10.0599 H   0  0  0  0  0  0  0  0  0  0  0  0
    0.4673   17.4950   -8.6254 H   0  0  0  0  0  0  0  0  0  0  0  0
    2.1169   16.0810   -8.4133 H   0  0  0  0  0  0  0  0  0  0  0  0
    0.3311   14.2845  -10.9815 H   0  0  0  0  0  0  0  0  0  0  0  0
    0.7633   15.5191  -12.2125 H   0  0  0  0  0  0  0  0  0  0  0  0
    1.5884   13.9236  -12.2125 H   0  0  0  0  0  0  0  0  0  0  0  0
    3.8228   14.3564   -9.6036 H   0  0  0  0  0  0  0  0  0  0  0  0
    3.4040   13.5617  -11.1591 H   0  0  0  0  0  0  0  0  0  0  0  0
    4.2743   15.1330  -11.1591 H   0  0  0  0  0  0  0  0  0  0  0  0
   -0.4510   13.8417   -6.2235 H   0  0  0  0  0  0  0  0  0  0  0  0
    1.4048   12.9709   -7.5001 H   0  0  0  0  0  0  0  0  0  0  0  0
    2.3841   14.4256   -7.2147 H   0  0  0  0  0  0  0  0  0  0  0  0
    2.7300   11.9079   -5.9082 H   0  0  0  0  0  0  0  0  0  0  0  0
    3.4457   13.4171   -5.3486 H   0  0  0  0  0  0  0  0  0  0  0  0
    0.1662   11.3267   -3.7539 H   0  0  0  0  0  0  0  0  0  0  0  0
   -0.3359   12.1274   -5.2815 H   0  0  0  0  0  0  0  0  0  0  0  0
    1.0445   10.9779   -5.2815 H   0  0  0  0  0  0  0  0  0  0  0  0
    2.8987   13.6054   -2.9955 H   0  0  0  0  0  0  0  0  0  0  0  0
    3.3307   11.1605   -3.6834 H   0  0  0  0  0  0  0  0  0  0  0  0
    3.6742   11.7448   -1.9716 H   0  0  0  0  0  0  0  0  0  0  0  0
    2.5379    9.3787   -2.1889 H   0  0  0  0  0  0  0  0  0  0  0  0
   -0.5742   11.9503   -2.1454 H   0  0  0  0  0  0  0  0  0  0  0  0
    0.4925   11.9903    0.7458 H   0  0  0  0  0  0  0  0  0  0  0  0
   -0.9085   12.9449    0.0845 H   0  0  0  0  0  0  0  0  0  0  0  0
   -1.6479   10.9837    1.3984 H   0  0  0  0  0  0  0  0  0  0  0  0
   -2.1432   10.8995   -0.3377 H   0  0  0  0  0  0  0  0  0  0  0  0
   -1.3703    8.7338    0.3484 H   0  0  0  0  0  0  0  0  0  0  0  0
    1.0100    8.6890    0.9680 H   0  0  0  0  0  0  0  0  0  0  0  0
   -2.0521    8.9418   -1.7185 H   0  0  0  0  0  0  0  0  0  0  0  0
   -1.1580   10.0015   -2.8607 H   0  0  0  0  0  0  0  0  0  0  0  0
   -0.8625    8.2297   -2.8607 H   0  0  0  0  0  0  0  0  0  0  0  0
    0.9887    7.6586   -0.0950 H   0  0  0  0  0  0  0  0  0  0  0  0
    0.2345    7.1693   -1.6502 H   0  0  0  0  0  0  0  0  0  0  0  0
    1.7826    8.0805   -1.6502 H   0  0  0  0  0  0  0  0  0  0  0  0
    1.5035   13.3103    0.3512 H   0  0  0  0  0  0  0  0  0  0  0  0
    2.9852   13.0229   -0.6228 H   0  0  0  0  0  0  0  0  0  0  0  0
    2.2107   14.6437   -0.6228 H   0  0  0  0  0  0  0  0  0  0  0  0
   -0.6681   14.2963   -1.4715 H   0  0  0  0  0  0  0  0  0  0  0  0
    0.8431   15.2555   -1.9513 H   0  0  0  0  0  0  0  0  0  0  0  0
   -1.0224   13.7104   -3.7734 H   0  0  0  0  0  0  0  0  0  0  0  0
   -0.7372   15.4940   -3.6994 H   0  0  0  0  0  0  0  0  0  0  0  0
    1.9902   15.6937   -3.2246 H   0  0  0  0  0  0  0  0  0  0  0  0
    2.8436   15.3136   -4.7588 H   0  0  0  0  0  0  0  0  0  0  0  0
    1.4673   16.4679   -4.7588 H   0  0  0  0  0  0  0  0  0  0  0  0
  1  2  1  0
  2  3  1  0
  3  4  1  0
  4  5  1  0
  5  6  1  0
  6  7  1  0
  7  8  1  0
  7  9  1  0
  2 10  1  0
 10 11  1  0
 11 12  1  0
 12 13  1  0
 13 14  1  6
 13 15  1  0
 15 16  1  0
 16 17  1  0
 17 18  2  0
 18 19  1  0
 19 20  1  0
 20 21  1  0
 21 22  1  0
 22 23  1  0
 22 24  1  0
 24 25  1  0
 24 26  1  0
 19 27  1  0
 27 28  1  1
 27 29  1  0
 29 30  1  0
 30 31  1  0
 31 32  1  6
  7  5  1  0
 31 10  1  0
 31 13  1  0
 27 15  1  0
 24 18  1  0
  1 33  1  0
  1 34  1  0
  1 35  1  0
  2 36  1  6
  3 37  1  0
  3 38  1  0
  4 39  1  0
  4 40  1  0
  5 41  1  1
  8 42  1  0
  8 43  1  0
  8 44  1  0
  9 45  1  0
  9 46  1  0
  9 47  1  0
 10 48  1  1
 11 49  1  0
 11 50  1  0
 12 51  1  0
 12 52  1  0
 14 53  1  0
 14 54  1  0
 14 55  1  0
 15 56  1  6
 16 57  1  0
 16 58  1  0
 17 59  1  0
 19 60  1  6
 20 61  1  0
 20 62  1  0
 21 63  1  0
 21 64  1  0
 22 65  1  1
 23 66  1  0
 25 67  1  0
 25 68  1  0
 25 69  1  0
 26 70  1  0
 26 71  1  0
 26 72  1  0
 28 73  1  0
 28 74  1  0
 28 75  1  0
 29 76  1  0
 29 77  1  0
 30 78  1  0
 30 79  1  0
 32 80  1  0
 32 81  1  0
 32 82  1  0
M  END
>  <meeko>  (12) 
{"is_sidechain": [false], "intermolecular_energy": 2.731, "internal_energy": -0.839}

$$$$
EPH_relaxed_0001_pdb2pqr_Repair_89_r2_0001_out
     RDKit          3D

 82 86  0  0  0  0  0  0  0  0999 V2000
    0.0250    9.3680   -2.2650 C   0  0  0  0  0  0  0  0  0  0  0  0
    1.1410   10.3250   -2.6910 C   0  0  2  0  0  0  0  0  0  0  0  0
    2.5200    9.6370   -2.7120 C   0  0  0  0  0  0  0  0  0  0  0  0
    3.4560   10.1680   -3.8010 C   0  0  0  0  0  0  0  0  0  0  0  0
    4.8180   10.4810   -3.2580 C   0  0  2  0  0  0  0  0  0  0  0  0
    5.2710   11.8170   -3.5110 O   0  0  0  0  0  0  0  0  0  0  0  0
    6.0240   10.7630   -4.1340 C   0  0  0  0  0  0  0  0  0  0  0  0
    5.9250   10.7460   -5.6270 C   0  0  0  0  0  0  0  0  0  0  0  0
    7.3900   10.5740   -3.5530 C   0  0  0  0  0  0  0  0  0  0  0  0
    1.1740   11.5320   -1.7610 C   0  0  1  0  0  0  0  0  0  0  0  0
    2.2680   11.4120   -0.6660 C   0  0  0  0  0  0  0  0  0  0  0  0
    2.8080   12.8430   -0.4150 C   0  0  0  0  0  0  0  0  0  0  0  0
    1.7930   13.7730   -1.1200 C   0  0  1  0  0  0  0  0  0  0  0  0
    0.6080   13.9080   -0.1130 C   0  0  0  0  0  0  0  0  0  0  0  0
    2.3310   15.1700   -1.5690 C   0  0  2  0  0  0  0  0  0  0  0  0
    2.8120   16.0820   -0.4270 C   0  0  0  0  0  0  0  0  0  0  0  0
    1.7710   16.9820    0.1520 C   0  0  0  0  0  0  0  0  0  0  0  0
    0.5810   17.2640   -0.4100 C   0  0  0  0  0  0  0  0  0  0  0  0
    0.2210   16.7300   -1.8020 C   0  0  1  0  0  0  0  0  0  0  0  0
   -0.3840   17.8750   -2.6560 C   0  0  0  0  0  0  0  0  0  0  0  0
   -1.5640   18.5560   -1.9690 C   0  0  0  0  0  0  0  0  0  0  0  0
   -1.1520   19.1250   -0.6140 C   0  0  2  0  0  0  0  0  0  0  0  0
   -0.2250   20.1940   -0.8260 O   0  0  0  0  0  0  0  0  0  0  0  0
   -0.5190   18.0640    0.3300 C   0  0  0  0  0  0  0  0  0  0  0  0
   -1.6100   17.0700    0.8000 C   0  0  0  0  0  0  0  0  0  0  0  0
   -0.0200   18.7960    1.6040 C   0  0  0  0  0  0  0  0  0  0  0  0
    1.3740   15.9450   -2.5630 C   0  0  1  0  0  0  0  0  0  0  0  0
    2.2700   16.9480   -3.3520 C   0  0  0  0  0  0  0  0  0  0  0  0
    0.7260   14.9910   -3.6350 C   0  0  0  0  0  0  0  0  0  0  0  0
    0.3250   13.5820   -3.1590 C   0  0  0  0  0  0  0  0  0  0  0  0
    1.4730   12.9130   -2.3960 C   0  0  2  0  0  0  0  0  0  0  0  0
    2.6720   12.7430   -3.3900 C   0  0  0  0  0  0  0  0  0  0  0  0
   -0.0232    9.3266   -1.1668 H   0  0  0  0  0  0  0  0  0  0  0  0
   -0.9366    9.7266   -2.6610 H   0  0  0  0  0  0  0  0  0  0  0  0
    0.2328    8.3630   -2.6610 H   0  0  0  0  0  0  0  0  0  0  0  0
    0.9213   10.6532   -3.7176 H   0  0  0  0  0  0  0  0  0  0  0  0
    3.0006    9.7925   -1.7348 H   0  0  0  0  0  0  0  0  0  0  0  0
    2.3452    8.5729   -2.9291 H   0  0  0  0  0  0  0  0  0  0  0  0
    3.5529    9.4073   -4.5897 H   0  0  0  0  0  0  0  0  0  0  0  0
    3.0244   11.0976   -4.2005 H   0  0  0  0  0  0  0  0  0  0  0  0
    4.6647    9.7930   -2.4135 H   0  0  0  0  0  0  0  0  0  0  0  0
    4.8809   10.5667   -5.9232 H   0  0  0  0  0  0  0  0  0  0  0  0
    6.2587   11.7146   -6.0277 H   0  0  0  0  0  0  0  0  0  0  0  0
    6.5627    9.9442   -6.0277 H   0  0  0  0  0  0  0  0  0  0  0  0
    7.3258   10.5829   -2.4549 H   0  0  0  0  0  0  0  0  0  0  0  0
    7.8011    9.6104   -3.8885 H   0  0  0  0  0  0  0  0  0  0  0  0
    8.0472   11.3898   -3.8885 H   0  0  0  0  0  0  0  0  0  0  0  0
    0.1391   11.5057   -1.3891 H   0  0  0  0  0  0  0  0  0  0  0  0
    1.8351   11.0028    0.2588 H   0  0  0  0  0  0  0  0  0  0  0  0
    3.0746   10.7359   -0.9858 H   0  0  0  0  0  0  0  0  0  0  0  0
    2.8489   13.0590    0.6628 H   0  0  0  0  0  0  0  0  0  0  0  0
    3.8307   12.9757   -0.7977 H   0  0  0  0  0  0  0  0  0  0  0  0
    0.9944   13.8640    0.9160 H   0  0  0  0  0  0  0  0  0  0  0  0
    0.0989   14.8700   -0.2727 H   0  0  0  0  0  0  0  0  0  0  0  0
   -0.1044   13.0852   -0.2727 H   0  0  0  0  0  0  0  0  0  0  0  0
    3.2334   14.9025   -2.1383 H   0  0  0  0  0  0  0  0  0  0  0  0
    3.1951   15.4415    0.3811 H   0  0  0  0  0  0  0  0  0  0  0  0
    3.5750   16.7419   -0.8655 H   0  0  0  0  0  0  0  0  0  0  0  0
    1.9955   17.4545    1.1196 H   0  0  0  0  0  0  0  0  0  0  0  0
   -0.5338   15.9462   -1.6407 H   0  0  0  0  0  0  0  0  0  0  0  0
    0.3973   18.6266   -2.8424 H   0  0  0  0  0  0  0  0  0  0  0  0
   -0.7527   17.4335   -3.5936 H   0  0  0  0  0  0  0  0  0  0  0  0
   -1.9288   19.3743   -2.6072 H   0  0  0  0  0  0  0  0  0  0  0  0
   -2.3563   17.8096   -1.8102 H   0  0  0  0  0  0  0  0  0  0  0  0
   -2.0648   19.4831   -0.1154 H   0  0  0  0  0  0  0  0  0  0  0  0
   -0.5820   20.7580   -1.5330 H   0  0  0  0  0  0  0  0  0  0  0  0
   -1.6356   17.0466    1.8995 H   0  0  0  0  0  0  0  0  0  0  0  0
   -2.5895   17.3926    0.4172 H   0  0  0  0  0  0  0  0  0  0  0  0
   -1.3797   16.0648    0.4172 H   0  0  0  0  0  0  0  0  0  0  0  0
   -0.3817   18.2654    2.4971 H   0  0  0  0  0  0  0  0  0  0  0  0
    1.0798   18.8148    1.6090 H   0  0  0  0  0  0  0  0  0  0  0  0
   -0.4044   19.8266    1.6090 H   0  0  0  0  0  0  0  0  0  0  0  0
    2.8303   17.5752   -2.6430 H   0  0  0  0  0  0  0  0  0  0  0  0
    2.9757   16.3898   -3.9848 H   0  0  0  0  0  0  0  0  0  0  0  0
    1.6361   17.5865   -3.9848 H   0  0  0  0  0  0  0  0  0  0  0  0
   -0.1807   15.4845   -4.0148 H   0  0  0  0  0  0  0  0  0  0  0  0
    1.5117   14.8278   -4.3874 H   0  0  0  0  0  0  0  0  0  0  0  0
   -0.5493   13.6614   -2.4963 H   0  0  0  0  0  0  0  0  0  0  0  0
    0.0858   12.9690   -4.0405 H   0  0  0  0  0  0  0  0  0  0  0  0
    3.6041   12.6108   -2.8210 H   0  0  0  0  0  0  0  0  0  0  0  0
    2.5008   11.8601   -4.0234 H   0  0  0  0  0  0  0  0  0  0  0  0
    2.7530   13.6386   -4.0234 H   0  0  0  0  0  0  0  0  0  0  0  0
  1  2  1  0
  2  3  1  0
  3  4  1  0
  4  5  1  0
  5  6  1  0
  6  7  1  0
  7  8  1  0
  7  9  1  0
  2 10  1  0
 10 11  1  0
 11 12  1  0
 12 13  1  0
 13 14  1  1
 13 15  1  0
 15 16  1  0
 16 17  1  0
 17 18  2  0
 18 19  1  0
 19 20  1  0
 20 21  1  0
 21 22  1  0
 22 23  1  0
 22 24  1  0
 24 25  1  0
 24 26  1  0
 19 27  1  0
 27 28  1  6
 27 29  1  0
 29 30  1  0
 30 31  1  0
 31 32  1  6
  7  5  1  0
 31 10  1  0
 31 13  1  0
 27 15  1  0
 24 18  1  0
  1 33  1  0
  1 34  1  0
  1 35  1  0
  2 36  1  6
  3 37  1  0
  3 38  1  0
  4 39  1  0
  4 40  1  0
  5 41  1  1
  8 42  1  0
  8 43  1  0
  8 44  1  0
  9 45  1  0
  9 46  1  0
  9 47  1  0
 10 48  1  1
 11 49  1  0
 11 50  1  0
 12 51  1  0
 12 52  1  0
 14 53  1  0
 14 54  1  0
 14 55  1  0
 15 56  1  6
 16 57  1  0
 16 58  1  0
 17 59  1  0
 19 60  1  1
 20 61  1  0
 20 62  1  0
 21 63  1  0
 21 64  1  0
 22 65  1  1
 23 66  1  0
 25 67  1  0
 25 68  1  0
 25 69  1  0
 26 70  1  0
 26 71  1  0
 26 72  1  0
 28 73  1  0
 28 74  1  0
 28 75  1  0
 29 76  1  0
 29 77  1  0
 30 78  1  0
 30 79  1  0
 32 80  1  0
 32 81  1  0
 32 82  1  0
M  END
>  <meeko>  (13) 
{"is_sidechain": [false], "intermolecular_energy": 2.731, "internal_energy": -0.839}

$$$$
EPH_relaxed_0001_pdb2pqr_Repair_89_r2_0001_out
     RDKit          3D

 82 86  0  0  0  0  0  0  0  0999 V2000
   -4.0680    7.1770   -3.4320 C   0  0  0  0  0  0  0  0  0  0  0  0
   -4.0220    7.2540   -1.9040 C   0  0  2  0  0  0  0  0  0  0  0  0
   -5.4140    7.0610   -1.2700 C   0  0  0  0  0  0  0  0  0  0  0  0
   -6.5530    7.0060   -2.2920 C   0  0  0  0  0  0  0  0  0  0  0  0
   -7.8720    7.3580   -1.6720 C   0  0  2  0  0  0  0  0  0  0  0  0
   -8.4690    6.3100   -0.8980 O   0  0  0  0  0  0  0  0  0  0  0  0
   -9.1850    6.7150   -2.0760 C   0  0  0  0  0  0  0  0  0  0  0  0
   -9.2450    5.6670   -3.1430 C   0  0  0  0  0  0  0  0  0  0  0  0
  -10.4590    7.4460   -1.7860 C   0  0  0  0  0  0  0  0  0  0  0  0
   -3.4330    8.5910   -1.4680 C   0  0  1  0  0  0  0  0  0  0  0  0
   -4.0380    9.1040   -0.1340 C   0  0  0  0  0  0  0  0  0  0  0  0
   -2.8980    9.8360    0.6210 C   0  0  0  0  0  0  0  0  0  0  0  0
   -1.7800   10.0100   -0.4330 C   0  0  1  0  0  0  0  0  0  0  0  0
   -2.2030   11.2610   -1.2650 C   0  0  0  0  0  0  0  0  0  0  0  0
   -0.3250   10.1500    0.1200 C   0  0  2  0  0  0  0  0  0  0  0  0
   -0.0790   11.3830    1.0060 C   0  0  0  0  0  0  0  0  0  0  0  0
    0.3790   12.6070    0.2830 C   0  0  0  0  0  0  0  0  0  0  0  0
    0.8570   12.6390   -0.9750 C   0  0  0  0  0  0  0  0  0  0  0  0
    1.0670   11.3440   -1.7710 C   0  0  1  0  0  0  0  0  0  0  0  0
    2.4620   11.3750   -2.4500 C   0  0  0  0  0  0  0  0  0  0  0  0
    2.6710   12.6240   -3.3010 C   0  0  0  0  0  0  0  0  0  0  0  0
    2.5110   13.8890   -2.4620 C   0  0  2  0  0  0  0  0  0  0  0  0
    3.5780   13.9490   -1.5110 O   0  0  0  0  0  0  0  0  0  0  0  0
    1.1460   13.9650   -1.7220 C   0  0  0  0  0  0  0  0  0  0  0  0
    0.0100   14.2030   -2.7470 C   0  0  0  0  0  0  0  0  0  0  0  0
    1.1700   15.2150   -0.8020 C   0  0  0  0  0  0  0  0  0  0  0  0
    0.8040    9.9930   -0.9780 C   0  0  1  0  0  0  0  0  0  0  0  0
    2.0990    9.5560   -0.2270 C   0  0  0  0  0  0  0  0  0  0  0  0
    0.4810    8.8470   -2.0090 C   0  0  0  0  0  0  0  0  0  0  0  0
   -0.9930    8.6820   -2.4250 C   0  0  0  0  0  0  0  0  0  0  0  0
   -1.9080    8.6420   -1.1980 C   0  0  2  0  0  0  0  0  0  0  0  0
   -1.5210    7.3800   -0.3530 C   0  0  0  0  0  0  0  0  0  0  0  0
   -4.6100    6.2698   -3.7373 H   0  0  0  0  0  0  0  0  0  0  0  0
   -4.5846    8.0636   -3.8284 H   0  0  0  0  0  0  0  0  0  0  0  0
   -3.0425    7.1423   -3.8284 H   0  0  0  0  0  0  0  0  0  0  0  0
   -3.3815    6.4322   -1.5512 H   0  0  0  0  0  0  0  0  0  0  0  0
   -5.4099    6.1182   -0.7033 H   0  0  0  0  0  0  0  0  0  0  0  0
   -5.5993    7.9351   -0.6285 H   0  0  0  0  0  0  0  0  0  0  0  0
   -6.3390    7.7178   -3.1029 H   0  0  0  0  0  0  0  0  0  0  0  0
   -6.6187    5.9777   -2.6771 H   0  0  0  0  0  0  0  0  0  0  0  0
   -7.5674    8.4097   -1.5662 H   0  0  0  0  0  0  0  0  0  0  0  0
   -9.3020    4.6722   -2.6771 H   0  0  0  0  0  0  0  0  0  0  0  0
  -10.1352    5.8307   -3.7680 H   0  0  0  0  0  0  0  0  0  0  0  0
   -8.3419    5.7280   -3.7680 H   0  0  0  0  0  0  0  0  0  0  0  0
  -10.5968    7.5250   -0.6975 H   0  0  0  0  0  0  0  0  0  0  0  0
  -10.4111    8.4540   -2.2237 H   0  0  0  0  0  0  0  0  0  0  0  0
  -11.3051    6.8960   -2.2237 H   0  0  0  0  0  0  0  0  0  0  0  0
   -3.6789    9.1979   -2.3519 H   0  0  0  0  0  0  0  0  0  0  0  0
   -4.8662    9.7992   -0.3361 H   0  0  0  0  0  0  0  0  0  0  0  0
   -4.4380    8.2722    0.4644 H   0  0  0  0  0  0  0  0  0  0  0  0
   -3.2412   10.8145    0.9880 H   0  0  0  0  0  0  0  0  0  0  0  0
   -2.5555    9.2756    1.5034 H   0  0  0  0  0  0  0  0  0  0  0  0
   -2.4794   12.0786   -0.5830 H   0  0  0  0  0  0  0  0  0  0  0  0
   -1.3630   11.5807   -1.8992 H   0  0  0  0  0  0  0  0  0  0  0  0
   -3.0647   11.0053   -1.8992 H   0  0  0  0  0  0  0  0  0  0  0  0
   -0.2431    9.2806    0.7890 H   0  0  0  0  0  0  0  0  0  0  0  0
   -1.0204   11.6247    1.5210 H   0  0  0  0  0  0  0  0  0  0  0  0
    0.7388   11.1089    1.6886 H   0  0  0  0  0  0  0  0  0  0  0  0
    0.3208   13.5629    0.8241 H   0  0  0  0  0  0  0  0  0  0  0  0
    0.2787   11.3263   -2.5380 H   0  0  0  0  0  0  0  0  0  0  0  0
    3.2353   11.3475   -1.6682 H   0  0  0  0  0  0  0  0  0  0  0  0
    2.5285   10.5022   -3.1162 H   0  0  0  0  0  0  0  0  0  0  0  0
    3.6838   12.6021   -3.7297 H   0  0  0  0  0  0  0  0  0  0  0  0
    1.9151   12.6348   -4.1001 H   0  0  0  0  0  0  0  0  0  0  0  0
    2.5428   14.7472   -3.1494 H   0  0  0  0  0  0  0  0  0  0  0  0
    4.1850   13.2140   -1.7030 H   0  0  0  0  0  0  0  0  0  0  0  0
   -0.9309   14.4001   -2.2124 H   0  0  0  0  0  0  0  0  0  0  0  0
    0.2611   15.0680   -3.3784 H   0  0  0  0  0  0  0  0  0  0  0  0
   -0.1072   13.3099   -3.3784 H   0  0  0  0  0  0  0  0  0  0  0  0
    1.1639   14.8957    0.2506 H   0  0  0  0  0  0  0  0  0  0  0  0
    2.0795   15.8003   -1.0023 H   0  0  0  0  0  0  0  0  0  0  0  0
    0.2836   15.8348   -1.0023 H   0  0  0  0  0  0  0  0  0  0  0  0
    1.9303    9.6129    0.8585 H   0  0  0  0  0  0  0  0  0  0  0  0
    2.3529    8.5224   -0.5049 H   0  0  0  0  0  0  0  0  0  0  0  0
    2.9273   10.2244   -0.5049 H   0  0  0  0  0  0  0  0  0  0  0  0
    1.0638    9.0455   -2.9206 H   0  0  0  0  0  0  0  0  0  0  0  0
    0.7401    7.9121   -1.4906 H   0  0  0  0  0  0  0  0  0  0  0  0
   -1.2838    9.5295   -3.0631 H   0  0  0  0  0  0  0  0  0  0  0  0
   -1.0988    7.7337   -2.9722 H   0  0  0  0  0  0  0  0  0  0  0  0
   -1.5944    7.6193    0.7181 H   0  0  0  0  0  0  0  0  0  0  0  0
   -2.2072    6.5542   -0.5920 H   0  0  0  0  0  0  0  0  0  0  0  0
   -0.4898    7.0808   -0.5920 H   0  0  0  0  0  0  0  0  0  0  0  0
  1  2  1  0
  2  3  1  0
  3  4  1  0
  4  5  1  0
  5  6  1  0
  6  7  1  0
  7  8  1  0
  7  9  1  0
  2 10  1  0
 10 11  1  0
 11 12  1  0
 12 13  1  0
 13 14  1  6
 13 15  1  0
 15 16  1  0
 16 17  1  0
 17 18  2  0
 18 19  1  0
 19 20  1  0
 20 21  1  0
 21 22  1  0
 22 23  1  0
 22 24  1  0
 24 25  1  0
 24 26  1  0
 19 27  1  0
 27 28  1  1
 27 29  1  0
 29 30  1  0
 30 31  1  0
 31 32  1  1
  7  5  1  0
 31 10  1  0
 31 13  1  0
 27 15  1  0
 24 18  1  0
  1 33  1  0
  1 34  1  0
  1 35  1  0
  2 36  1  1
  3 37  1  0
  3 38  1  0
  4 39  1  0
  4 40  1  0
  5 41  1  1
  8 42  1  0
  8 43  1  0
  8 44  1  0
  9 45  1  0
  9 46  1  0
  9 47  1  0
 10 48  1  6
 11 49  1  0
 11 50  1  0
 12 51  1  0
 12 52  1  0
 14 53  1  0
 14 54  1  0
 14 55  1  0
 15 56  1  1
 16 57  1  0
 16 58  1  0
 17 59  1  0
 19 60  1  6
 20 61  1  0
 20 62  1  0
 21 63  1  0
 21 64  1  0
 22 65  1  6
 23 66  1  0
 25 67  1  0
 25 68  1  0
 25 69  1  0
 26 70  1  0
 26 71  1  0
 26 72  1  0
 28 73  1  0
 28 74  1  0
 28 75  1  0
 29 76  1  0
 29 77  1  0
 30 78  1  0
 30 79  1  0
 32 80  1  0
 32 81  1  0
 32 82  1  0
M  END
>  <meeko>  (14) 
{"is_sidechain": [false], "intermolecular_energy": 2.731, "internal_energy": -0.839}

$$$$
EPH_relaxed_0001_pdb2pqr_Repair_89_r2_0001_out
     RDKit          3D

 82 86  0  0  0  0  0  0  0  0999 V2000
   -2.2720    7.8770   -2.1250 C   0  0  0  0  0  0  0  0  0  0  0  0
   -2.2600    8.4950   -0.7240 C   0  0  2  0  0  0  0  0  0  0  0  0
   -3.6600    8.4970   -0.0780 C   0  0  0  0  0  0  0  0  0  0  0  0
   -4.8060    8.4680   -1.0920 C   0  0  0  0  0  0  0  0  0  0  0  0
   -5.5110    7.1450   -1.0930 C   0  0  2  0  0  0  0  0  0  0  0  0
   -5.6670    6.5510   -2.3890 O   0  0  0  0  0  0  0  0  0  0  0  0
   -6.8780    6.9260   -1.7140 C   0  0  0  0  0  0  0  0  0  0  0  0
   -7.6220    8.0430   -2.3770 C   0  0  0  0  0  0  0  0  0  0  0  0
   -7.6970    5.7610   -1.2510 C   0  0  0  0  0  0  0  0  0  0  0  0
   -1.7140    9.9170   -0.7890 C   0  0  1  0  0  0  0  0  0  0  0  0
   -1.2570   10.4450    0.5970 C   0  0  0  0  0  0  0  0  0  0  0  0
   -0.0250   11.3520    0.3460 C   0  0  0  0  0  0  0  0  0  0  0  0
   -0.0160   11.5830   -1.1830 C   0  0  1  0  0  0  0  0  0  0  0  0
   -1.0590   12.7190   -1.4230 C   0  0  0  0  0  0  0  0  0  0  0  0
    1.3690   11.9270   -1.8220 C   0  0  2  0  0  0  0  0  0  0  0  0
    2.0080   13.2370   -1.3290 C   0  0  0  0  0  0  0  0  0  0  0  0
    1.6570   14.4540   -2.1180 C   0  0  0  0  0  0  0  0  0  0  0  0
    1.0960   14.4580   -3.3420 C   0  0  0  0  0  0  0  0  0  0  0  0
    0.8450   13.1460   -4.0970 C   0  0  1  0  0  0  0  0  0  0  0  0
    1.3300   13.2930   -5.5640 C   0  0  0  0  0  0  0  0  0  0  0  0
    0.7120   14.4980   -6.2660 C   0  0  0  0  0  0  0  0  0  0  0  0
    1.0320   15.7890   -5.5170 C   0  0  2  0  0  0  0  0  0  0  0  0
    2.4390   16.0360   -5.6030 O   0  0  0  0  0  0  0  0  0  0  0  0
    0.5980   15.7560   -4.0250 C   0  0  0  0  0  0  0  0  0  0  0  0
   -0.9470   15.7920   -3.9320 C   0  0  0  0  0  0  0  0  0  0  0  0
    1.1050   17.0590   -3.3510 C   0  0  0  0  0  0  0  0  0  0  0  0
    1.3970   11.8290   -3.4010 C   0  0  1  0  0  0  0  0  0  0  0  0
    2.8840   11.5960   -3.8060 C   0  0  0  0  0  0  0  0  0  0  0  0
    0.5910   10.5870   -3.9370 C   0  0  0  0  0  0  0  0  0  0  0  0
   -0.7070   10.2260   -3.1900 C   0  0  0  0  0  0  0  0  0  0  0  0
   -0.4700   10.1620   -1.6780 C   0  0  2  0  0  0  0  0  0  0  0  0
    0.5590    9.0120   -1.4040 C   0  0  0  0  0  0  0  0  0  0  0  0
   -2.2933    6.7804   -2.0418 H   0  0  0  0  0  0  0  0  0  0  0  0
   -3.1636    8.2208   -2.6698 H   0  0  0  0  0  0  0  0  0  0  0  0
   -1.3677    8.1859   -2.6698 H   0  0  0  0  0  0  0  0  0  0  0  0
   -1.6069    7.8739   -0.0933 H   0  0  0  0  0  0  0  0  0  0  0  0
   -3.7455    7.6108    0.5680 H   0  0  0  0  0  0  0  0  0  0  0  0
   -3.7528    9.4375    0.4848 H   0  0  0  0  0  0  0  0  0  0  0  0
   -5.5286    9.2570   -0.8362 H   0  0  0  0  0  0  0  0  0  0  0  0
   -4.3822    8.6319   -2.0938 H   0  0  0  0  0  0  0  0  0  0  0  0
   -5.1033    6.9001   -0.1011 H   0  0  0  0  0  0  0  0  0  0  0  0
   -8.0589    8.6989   -1.6096 H   0  0  0  0  0  0  0  0  0  0  0  0
   -6.9294    8.6234   -3.0043 H   0  0  0  0  0  0  0  0  0  0  0  0
   -8.4244    7.6276   -3.0043 H   0  0  0  0  0  0  0  0  0  0  0  0
   -7.7131    5.7381   -0.1514 H   0  0  0  0  0  0  0  0  0  0  0  0
   -8.7245    5.8611   -1.6308 H   0  0  0  0  0  0  0  0  0  0  0  0
   -7.2550    4.8280   -1.6308 H   0  0  0  0  0  0  0  0  0  0  0  0
   -2.5881   10.4302   -1.2163 H   0  0  0  0  0  0  0  0  0  0  0  0
   -2.0651   11.0251    1.0666 H   0  0  0  0  0  0  0  0  0  0  0  0
   -1.0049    9.6143    1.2726 H   0  0  0  0  0  0  0  0  0  0  0  0
   -0.1298   12.3066    0.8824 H   0  0  0  0  0  0  0  0  0  0  0  0
    0.9093   10.8953    0.7045 H   0  0  0  0  0  0  0  0  0  0  0  0
   -1.4119   13.1033   -0.4546 H   0  0  0  0  0  0  0  0  0  0  0  0
   -0.5885   13.5346   -1.9918 H   0  0  0  0  0  0  0  0  0  0  0  0
   -1.9117   12.3197   -1.9918 H   0  0  0  0  0  0  0  0  0  0  0  0
    2.0112   11.1194   -1.4407 H   0  0  0  0  0  0  0  0  0  0  0  0
    1.6872   13.4015   -0.2897 H   0  0  0  0  0  0  0  0  0  0  0  0
    3.0946   13.1058   -1.4393 H   0  0  0  0  0  0  0  0  0  0  0  0
    1.8750   15.4305   -1.6609 H   0  0  0  0  0  0  0  0  0  0  0  0
   -0.2432   12.9865   -4.0772 H   0  0  0  0  0  0  0  0  0  0  0  0
    2.4240   13.4076   -5.5640 H   0  0  0  0  0  0  0  0  0  0  0  0
    1.0177   12.3912   -6.1111 H   0  0  0  0  0  0  0  0  0  0  0  0
    1.1147   14.5652   -7.2874 H   0  0  0  0  0  0  0  0  0  0  0  0
   -0.3800   14.3679   -6.2908 H   0  0  0  0  0  0  0  0  0  0  0  0
    0.4569   16.5969   -5.9931 H   0  0  0  0  0  0  0  0  0  0  0  0
    2.6700   16.6710   -4.9050 H   0  0  0  0  0  0  0  0  0  0  0  0
   -1.2506   15.7991   -2.8748 H   0  0  0  0  0  0  0  0  0  0  0  0
   -1.3231   16.6992   -4.4276 H   0  0  0  0  0  0  0  0  0  0  0  0
   -1.3650   14.9034   -4.4276 H   0  0  0  0  0  0  0  0  0  0  0  0
    1.0615   16.9471   -2.2576 H   0  0  0  0  0  0  0  0  0  0  0  0
    2.1434   17.2510   -3.6589 H   0  0  0  0  0  0  0  0  0  0  0  0
    0.4694   17.9023   -3.6589 H   0  0  0  0  0  0  0  0  0  0  0  0
    3.5000   11.4995   -2.8998 H   0  0  0  0  0  0  0  0  0  0  0  0
    2.9617   10.6747   -4.4020 H   0  0  0  0  0  0  0  0  0  0  0  0
    3.2397   12.4494   -4.4020 H   0  0  0  0  0  0  0  0  0  0  0  0
    0.3263   10.7894   -4.9853 H   0  0  0  0  0  0  0  0  0  0  0  0
    1.2580    9.7251   -3.7879 H   0  0  0  0  0  0  0  0  0  0  0  0
   -1.4690   10.9903   -3.4027 H   0  0  0  0  0  0  0  0  0  0  0  0
   -1.0462    9.2377   -3.5339 H   0  0  0  0  0  0  0  0  0  0  0  0
    0.6788    8.8781   -0.3188 H   0  0  0  0  0  0  0  0  0  0  0  0
    0.1909    8.0765   -1.8505 H   0  0  0  0  0  0  0  0  0  0  0  0
    1.5295    9.2743   -1.8505 H   0  0  0  0  0  0  0  0  0  0  0  0
  1  2  1  0
  2  3  1  0
  3  4  1  0
  4  5  1  0
  5  6  1  0
  6  7  1  0
  7  8  1  0
  7  9  1  0
  2 10  1  0
 10 11  1  0
 11 12  1  0
 12 13  1  0
 13 14  1  1
 13 15  1  0
 15 16  1  0
 16 17  1  0
 17 18  2  0
 18 19  1  0
 19 20  1  0
 20 21  1  0
 21 22  1  0
 22 23  1  0
 22 24  1  0
 24 25  1  0
 24 26  1  0
 19 27  1  0
 27 28  1  6
 27 29  1  0
 29 30  1  0
 30 31  1  0
 31 32  1  6
  7  5  1  0
 31 10  1  0
 31 13  1  0
 27 15  1  0
 24 18  1  0
  1 33  1  0
  1 34  1  0
  1 35  1  0
  2 36  1  1
  3 37  1  0
  3 38  1  0
  4 39  1  0
  4 40  1  0
  5 41  1  1
  8 42  1  0
  8 43  1  0
  8 44  1  0
  9 45  1  0
  9 46  1  0
  9 47  1  0
 10 48  1  6
 11 49  1  0
 11 50  1  0
 12 51  1  0
 12 52  1  0
 14 53  1  0
 14 54  1  0
 14 55  1  0
 15 56  1  1
 16 57  1  0
 16 58  1  0
 17 59  1  0
 19 60  1  6
 20 61  1  0
 20 62  1  0
 21 63  1  0
 21 64  1  0
 22 65  1  6
 23 66  1  0
 25 67  1  0
 25 68  1  0
 25 69  1  0
 26 70  1  0
 26 71  1  0
 26 72  1  0
 28 73  1  0
 28 74  1  0
 28 75  1  0
 29 76  1  0
 29 77  1  0
 30 78  1  0
 30 79  1  0
 32 80  1  0
 32 81  1  0
 32 82  1  0
M  END
>  <meeko>  (15) 
{"is_sidechain": [false], "intermolecular_energy": 2.731, "internal_energy": -0.839}

$$$$
EPH_relaxed_0001_pdb2pqr_Repair_89_r2_0001_out
     RDKit          3D

 82 86  0  0  0  0  0  0  0  0999 V2000
    2.8730   11.4190   -5.4180 C   0  0  0  0  0  0  0  0  0  0  0  0
    1.9060   11.1060   -4.2730 C   0  0  2  0  0  0  0  0  0  0  0  0
    0.7950   10.1260   -4.7020 C   0  0  0  0  0  0  0  0  0  0  0  0
   -0.2790    9.9070   -3.6330 C   0  0  0  0  0  0  0  0  0  0  0  0
    0.2300    9.0700   -2.4990 C   0  0  2  0  0  0  0  0  0  0  0  0
   -0.6320    7.9890   -2.1190 O   0  0  0  0  0  0  0  0  0  0  0  0
   -0.4340    9.0170   -1.1350 C   0  0  0  0  0  0  0  0  0  0  0  0
   -1.6630    9.8150   -0.8340 C   0  0  0  0  0  0  0  0  0  0  0  0
    0.3810    8.5770    0.0410 C   0  0  0  0  0  0  0  0  0  0  0  0
    1.2880   12.3960   -3.7470 C   0  0  1  0  0  0  0  0  0  0  0  0
   -0.2530   12.2990   -3.5880 C   0  0  0  0  0  0  0  0  0  0  0  0
   -0.6280   13.1450   -2.3440 C   0  0  0  0  0  0  0  0  0  0  0  0
    0.6460   13.9620   -2.0290 C   0  0  1  0  0  0  0  0  0  0  0  0
    0.6040   15.1680   -3.0200 C   0  0  0  0  0  0  0  0  0  0  0  0
    0.8150   14.4360   -0.5490 C   0  0  2  0  0  0  0  0  0  0  0  0
   -0.2750   15.3970   -0.0430 C   0  0  0  0  0  0  0  0  0  0  0  0
    0.0100   16.8490   -0.2450 C   0  0  0  0  0  0  0  0  0  0  0  0
    1.2120   17.3750   -0.5480 C   0  0  0  0  0  0  0  0  0  0  0  0
    2.4630   16.4900   -0.6200 C   0  0  1  0  0  0  0  0  0  0  0  0
    3.6250   17.1730    0.1490 C   0  0  0  0  0  0  0  0  0  0  0  0
    3.8880   18.5970   -0.3310 C   0  0  0  0  0  0  0  0  0  0  0  0
    2.6370   19.4600   -0.1890 C   0  0  2  0  0  0  0  0  0  0  0  0
    2.3460   19.6240    1.2020 O   0  0  0  0  0  0  0  0  0  0  0  0
    1.3980   18.8670   -0.9160 C   0  0  0  0  0  0  0  0  0  0  0  0
    1.5950   18.9690   -2.4490 C   0  0  0  0  0  0  0  0  0  0  0  0
    0.1730   19.7590   -0.5760 C   0  0  0  0  0  0  0  0  0  0  0  0
    2.2630   14.9700   -0.2010 C   0  0  1  0  0  0  0  0  0  0  0  0
    2.4360   14.8170    1.3410 C   0  0  0  0  0  0  0  0  0  0  0  0
    3.3970   14.1010   -0.8630 C   0  0  0  0  0  0  0  0  0  0  0  0
    3.1210   13.5620   -2.2800 C   0  0  0  0  0  0  0  0  0  0  0  0
    1.7480   12.8880   -2.3520 C   0  0  2  0  0  0  0  0  0  0  0  0
    1.7670   11.6570   -1.3830 C   0  0  0  0  0  0  0  0  0  0  0  0
    3.8425   11.7328   -5.0037 H   0  0  0  0  0  0  0  0  0  0  0  0
    3.0122   10.5200   -6.0365 H   0  0  0  0  0  0  0  0  0  0  0  0
    2.4590   12.2290   -6.0365 H   0  0  0  0  0  0  0  0  0  0  0  0
    2.4854   10.6190   -3.4748 H   0  0  0  0  0  0  0  0  0  0  0  0
    0.3099   10.5248   -5.6051 H   0  0  0  0  0  0  0  0  0  0  0  0
    1.2757    9.1525   -4.8789 H   0  0  0  0  0  0  0  0  0  0  0  0
   -0.5957   10.8845   -3.2404 H   0  0  0  0  0  0  0  0  0  0  0  0
   -1.1230    9.3769   -4.0985 H   0  0  0  0  0  0  0  0  0  0  0  0
    1.2717    9.2440   -2.8065 H   0  0  0  0  0  0  0  0  0  0  0  0
   -1.7892    9.8970    0.2557 H   0  0  0  0  0  0  0  0  0  0  0  0
   -1.5626   10.8207   -1.2682 H   0  0  0  0  0  0  0  0  0  0  0  0
   -2.5409    9.3141   -1.2682 H   0  0  0  0  0  0  0  0  0  0  0  0
   -0.1363    8.8563    0.9707 H   0  0  0  0  0  0  0  0  0  0  0  0
    0.5124    7.4854    0.0082 H   0  0  0  0  0  0  0  0  0  0  0  0
    1.3658    9.0660    0.0082 H   0  0  0  0  0  0  0  0  0  0  0  0
    1.6310   13.0947   -4.5243 H   0  0  0  0  0  0  0  0  0  0  0  0
   -0.7521   12.6992   -4.4828 H   0  0  0  0  0  0  0  0  0  0  0  0
   -0.5726   11.2536   -3.4659 H   0  0  0  0  0  0  0  0  0  0  0  0
   -1.4721   13.8134   -2.5691 H   0  0  0  0  0  0  0  0  0  0  0  0
   -0.9436   12.5209   -1.4950 H   0  0  0  0  0  0  0  0  0  0  0  0
    0.5712   16.1090   -2.4512 H   0  0  0  0  0  0  0  0  0  0  0  0
    1.5032   15.1536   -3.6534 H   0  0  0  0  0  0  0  0  0  0  0  0
   -0.2920   15.0910   -3.6534 H   0  0  0  0  0  0  0  0  0  0  0  0
    0.6750   13.5021    0.0151 H   0  0  0  0  0  0  0  0  0  0  0  0
   -1.2103   15.1578   -0.5702 H   0  0  0  0  0  0  0  0  0  0  0  0
   -0.3314   15.2468    1.0452 H   0  0  0  0  0  0  0  0  0  0  0  0
   -0.8329   17.5476   -0.1372 H   0  0  0  0  0  0  0  0  0  0  0  0
    2.7178   16.4097   -1.6871 H   0  0  0  0  0  0  0  0  0  0  0  0
    3.3702   17.2030    1.2187 H   0  0  0  0  0  0  0  0  0  0  0  0
    4.5368   16.5856   -0.0340 H   0  0  0  0  0  0  0  0  0  0  0  0
    4.6982   19.0357    0.2700 H   0  0  0  0  0  0  0  0  0  0  0  0
    4.1724   18.5628   -1.3931 H   0  0  0  0  0  0  0  0  0  0  0  0
    2.8476   20.4278   -0.6675 H   0  0  0  0  0  0  0  0  0  0  0  0
    1.4490   19.9910    1.2740 H   0  0  0  0  0  0  0  0  0  0  0  0
    2.5531   19.4651   -2.6634 H   0  0  0  0  0  0  0  0  0  0  0  0
    1.5989   17.9596   -2.8862 H   0  0  0  0  0  0  0  0  0  0  0  0
    0.7729   19.5548   -2.8862 H   0  0  0  0  0  0  0  0  0  0  0  0
    0.0673   19.8359    0.5162 H   0  0  0  0  0  0  0  0  0  0  0  0
    0.3207   20.7625   -1.0017 H   0  0  0  0  0  0  0  0  0  0  0  0
   -0.7367   19.3104   -1.0017 H   0  0  0  0  0  0  0  0  0  0  0  0
    1.7084   15.4605    1.8572 H   0  0  0  0  0  0  0  0  0  0  0  0
    2.2658   13.7685    1.6268 H   0  0  0  0  0  0  0  0  0  0  0  0
    3.4558   15.1141    1.6268 H   0  0  0  0  0  0  0  0  0  0  0  0
    4.3045   14.7206   -0.9135 H   0  0  0  0  0  0  0  0  0  0  0  0
    3.4837   13.2078   -0.2269 H   0  0  0  0  0  0  0  0  0  0  0  0
    3.1496   14.3976   -2.9948 H   0  0  0  0  0  0  0  0  0  0  0  0
    3.8911   12.8167   -2.5280 H   0  0  0  0  0  0  0  0  0  0  0  0
    1.7615   12.0103   -0.3413 H   0  0  0  0  0  0  0  0  0  0  0  0
    0.8784   11.0344   -1.5637 H   0  0  0  0  0  0  0  0  0  0  0  0
    2.6744   11.0621   -1.5637 H   0  0  0  0  0  0  0  0  0  0  0  0
  1  2  1  0
  2  3  1  0
  3  4  1  0
  4  5  1  0
  5  6  1  0
  6  7  1  0
  7  8  1  0
  7  9  1  0
  2 10  1  0
 10 11  1  0
 11 12  1  0
 12 13  1  0
 13 14  1  6
 13 15  1  0
 15 16  1  0
 16 17  1  0
 17 18  2  0
 18 19  1  0
 19 20  1  0
 20 21  1  0
 21 22  1  0
 22 23  1  0
 22 24  1  0
 24 25  1  0
 24 26  1  0
 19 27  1  0
 27 28  1  1
 27 29  1  0
 29 30  1  0
 30 31  1  0
 31 32  1  1
  7  5  1  0
 31 10  1  0
 31 13  1  0
 27 15  1  0
 24 18  1  0
  1 33  1  0
  1 34  1  0
  1 35  1  0
  2 36  1  1
  3 37  1  0
  3 38  1  0
  4 39  1  0
  4 40  1  0
  5 41  1  1
  8 42  1  0
  8 43  1  0
  8 44  1  0
  9 45  1  0
  9 46  1  0
  9 47  1  0
 10 48  1  6
 11 49  1  0
 11 50  1  0
 12 51  1  0
 12 52  1  0
 14 53  1  0
 14 54  1  0
 14 55  1  0
 15 56  1  1
 16 57  1  0
 16 58  1  0
 17 59  1  0
 19 60  1  6
 20 61  1  0
 20 62  1  0
 21 63  1  0
 21 64  1  0
 22 65  1  6
 23 66  1  0
 25 67  1  0
 25 68  1  0
 25 69  1  0
 26 70  1  0
 26 71  1  0
 26 72  1  0
 28 73  1  0
 28 74  1  0
 28 75  1  0
 29 76  1  0
 29 77  1  0
 30 78  1  0
 30 79  1  0
 32 80  1  0
 32 81  1  0
 32 82  1  0
M  END
>  <meeko>  (16) 
{"is_sidechain": [false], "intermolecular_energy": 2.731, "internal_energy": -0.839}

$$$$
EPH_relaxed_0001_pdb2pqr_Repair_89_r2_0001_out
     RDKit          3D

 82 86  0  0  0  0  0  0  0  0999 V2000
    0.9360   14.9350   -2.6870 C   0  0  0  0  0  0  0  0  0  0  0  0
    1.1870   14.2540   -4.0350 C   0  0  2  0  0  0  0  0  0  0  0  0
    0.4640   14.9710   -5.1920 C   0  0  0  0  0  0  0  0  0  0  0  0
    1.0080   14.6080   -6.5770 C   0  0  0  0  0  0  0  0  0  0  0  0
    0.7900   15.7140   -7.5650 C   0  0  2  0  0  0  0  0  0  0  0  0
    0.3990   15.2790   -8.8740 O   0  0  0  0  0  0  0  0  0  0  0  0
    1.6730   15.9370   -8.7790 C   0  0  0  0  0  0  0  0  0  0  0  0
    2.8410   15.0470   -9.0680 C   0  0  0  0  0  0  0  0  0  0  0  0
    1.6970   17.2960   -9.4060 C   0  0  0  0  0  0  0  0  0  0  0  0
    0.7480   12.7960   -3.9700 C   0  0  1  0  0  0  0  0  0  0  0  0
    1.8860   11.8110   -4.3490 C   0  0  0  0  0  0  0  0  0  0  0  0
    1.6990   10.5500   -3.4670 C   0  0  0  0  0  0  0  0  0  0  0  0
    0.2860   10.7070   -2.8570 C   0  0  1  0  0  0  0  0  0  0  0  0
   -0.6890   10.2230   -3.9750 C   0  0  0  0  0  0  0  0  0  0  0  0
    0.0300    9.9620   -1.5060 C   0  0  2  0  0  0  0  0  0  0  0  0
    0.1470    8.4300   -1.5740 C   0  0  0  0  0  0  0  0  0  0  0  0
   -1.1210    7.7070   -1.8880 C   0  0  0  0  0  0  0  0  0  0  0  0
   -2.3580    8.2350   -1.8280 C   0  0  0  0  0  0  0  0  0  0  0  0
   -2.5800    9.6640   -1.3160 C   0  0  1  0  0  0  0  0  0  0  0  0
   -3.7570    9.6750   -0.3050 C   0  0  0  0  0  0  0  0  0  0  0  0
   -5.0280    9.0570   -0.8810 C   0  0  0  0  0  0  0  0  0  0  0  0
   -4.7820    7.6180   -1.3250 C   0  0  2  0  0  0  0  0  0  0  0  0
   -4.5140    6.8180   -0.1690 O   0  0  0  0  0  0  0  0  0  0  0  0
   -3.6110    7.4810   -2.3380 C   0  0  0  0  0  0  0  0  0  0  0  0
   -4.0260    8.0920   -3.6990 C   0  0  0  0  0  0  0  0  0  0  0  0
   -3.3760    5.9680   -2.5950 C   0  0  0  0  0  0  0  0  0  0  0  0
   -1.2910   10.4100   -0.7600 C   0  0  1  0  0  0  0  0  0  0  0  0
   -1.0890   10.0680    0.7480 C   0  0  0  0  0  0  0  0  0  0  0  0
   -1.5240   11.9650   -0.8360 C   0  0  0  0  0  0  0  0  0  0  0  0
   -1.1400   12.6620   -2.1550 C   0  0  0  0  0  0  0  0  0  0  0  0
    0.2690   12.2580   -2.5980 C   0  0  2  0  0  0  0  0  0  0  0  0
    1.2750   12.7510   -1.5030 C   0  0  0  0  0  0  0  0  0  0  0  0
    1.1917   14.2413   -1.8725 H   0  0  0  0  0  0  0  0  0  0  0  0
    1.5607   15.8371   -2.6100 H   0  0  0  0  0  0  0  0  0  0  0  0
   -0.1247   15.2159   -2.6100 H   0  0  0  0  0  0  0  0  0  0  0  0
    2.2669   14.3087   -4.2372 H   0  0  0  0  0  0  0  0  0  0  0  0
   -0.6018   14.7012   -5.1558 H   0  0  0  0  0  0  0  0  0  0  0  0
    0.6287   16.0499   -5.0546 H   0  0  0  0  0  0  0  0  0  0  0  0
    2.0870   14.4101   -6.4957 H   0  0  0  0  0  0  0  0  0  0  0  0
    0.4700   13.7176   -6.9344 H   0  0  0  0  0  0  0  0  0  0  0  0
    0.4463   16.3901   -6.7683 H   0  0  0  0  0  0  0  0  0  0  0  0
    3.2864   14.7076   -8.1212 H   0  0  0  0  0  0  0  0  0  0  0  0
    2.5032   14.1753   -9.6476 H   0  0  0  0  0  0  0  0  0  0  0  0
    3.5919   15.6040   -9.6476 H   0  0  0  0  0  0  0  0  0  0  0  0
    1.7105   18.0632   -8.6179 H   0  0  0  0  0  0  0  0  0  0  0  0
    2.5970   17.3959  -10.0305 H   0  0  0  0  0  0  0  0  0  0  0  0
    0.8010   17.4276  -10.0305 H   0  0  0  0  0  0  0  0  0  0  0  0
   -0.0938   12.8257   -4.6775 H   0  0  0  0  0  0  0  0  0  0  0  0
    1.8156   11.5425   -5.4134 H   0  0  0  0  0  0  0  0  0  0  0  0
    2.8736   12.2660   -4.1828 H   0  0  0  0  0  0  0  0  0  0  0  0
    1.7593    9.6368   -4.0772 H   0  0  0  0  0  0  0  0  0  0  0  0
    2.4787   10.4605   -2.6962 H   0  0  0  0  0  0  0  0  0  0  0  0
   -1.5837    9.7789   -3.5142 H   0  0  0  0  0  0  0  0  0  0  0  0
   -0.9847   11.0789   -4.5995 H   0  0  0  0  0  0  0  0  0  0  0  0
   -0.1860    9.4700   -4.5995 H   0  0  0  0  0  0  0  0  0  0  0  0
    0.8748   10.2977   -0.8866 H   0  0  0  0  0  0  0  0  0  0  0  0
    0.8828    8.1795   -2.3523 H   0  0  0  0  0  0  0  0  0  0  0  0
    0.4427    8.1023   -0.5664 H   0  0  0  0  0  0  0  0  0  0  0  0
   -1.0374    6.6538   -2.1943 H   0  0  0  0  0  0  0  0  0  0  0  0
   -2.8406   10.2660   -2.1990 H   0  0  0  0  0  0  0  0  0  0  0  0
   -3.4606    9.1046    0.5876 H   0  0  0  0  0  0  0  0  0  0  0  0
   -3.9771   10.7245   -0.0597 H   0  0  0  0  0  0  0  0  0  0  0  0
   -5.8138    9.0669   -0.1114 H   0  0  0  0  0  0  0  0  0  0  0  0
   -5.3393    9.6461   -1.7562 H   0  0  0  0  0  0  0  0  0  0  0  0
   -5.6883    7.2739   -1.8448 H   0  0  0  0  0  0  0  0  0  0  0  0
   -4.6310    7.3830    0.6130 H   0  0  0  0  0  0  0  0  0  0  0  0
   -4.6364    8.9907   -3.5266 H   0  0  0  0  0  0  0  0  0  0  0  0
   -3.1252    8.3643   -4.2686 H   0  0  0  0  0  0  0  0  0  0  0  0
   -4.6112    7.3550   -4.2686 H   0  0  0  0  0  0  0  0  0  0  0  0
   -3.2942    5.4410   -1.6329 H   0  0  0  0  0  0  0  0  0  0  0  0
   -4.2212    5.5576   -3.1671 H   0  0  0  0  0  0  0  0  0  0  0  0
   -2.4462    5.8333   -3.1671 H   0  0  0  0  0  0  0  0  0  0  0  0
   -1.5515   10.8511    1.3667 H   0  0  0  0  0  0  0  0  0  0  0  0
   -1.5598    9.0991    0.9705 H   0  0  0  0  0  0  0  0  0  0  0  0
   -0.0132   10.0126    0.9705 H   0  0  0  0  0  0  0  0  0  0  0  0
   -2.5942   12.1499   -0.6614 H   0  0  0  0  0  0  0  0  0  0  0  0
   -0.8520   12.3938   -0.0780 H   0  0  0  0  0  0  0  0  0  0  0  0
   -1.8591   12.3750   -2.9364 H   0  0  0  0  0  0  0  0  0  0  0  0
   -1.1591   13.7502   -1.9953 H   0  0  0  0  0  0  0  0  0  0  0  0
    0.8595   12.5474   -0.5050 H   0  0  0  0  0  0  0  0  0  0  0  0
    2.2312   12.2194   -1.6175 H   0  0  0  0  0  0  0  0  0  0  0  0
    1.4407   13.8324   -1.6175 H   0  0  0  0  0  0  0  0  0  0  0  0
  1  2  1  0
  2  3  1  0
  3  4  1  0
  4  5  1  0
  5  6  1  0
  6  7  1  0
  7  8  1  0
  7  9  1  0
  2 10  1  0
 10 11  1  0
 11 12  1  0
 12 13  1  0
 13 14  1  6
 13 15  1  0
 15 16  1  0
 16 17  1  0
 17 18  2  0
 18 19  1  0
 19 20  1  0
 20 21  1  0
 21 22  1  0
 22 23  1  0
 22 24  1  0
 24 25  1  0
 24 26  1  0
 19 27  1  0
 27 28  1  1
 27 29  1  0
 29 30  1  0
 30 31  1  0
 31 32  1  1
  7  5  1  0
 31 10  1  0
 31 13  1  0
 27 15  1  0
 24 18  1  0
  1 33  1  0
  1 34  1  0
  1 35  1  0
  2 36  1  6
  3 37  1  0
  3 38  1  0
  4 39  1  0
  4 40  1  0
  5 41  1  1
  8 42  1  0
  8 43  1  0
  8 44  1  0
  9 45  1  0
  9 46  1  0
  9 47  1  0
 10 48  1  6
 11 49  1  0
 11 50  1  0
 12 51  1  0
 12 52  1  0
 14 53  1  0
 14 54  1  0
 14 55  1  0
 15 56  1  1
 16 57  1  0
 16 58  1  0
 17 59  1  0
 19 60  1  6
 20 61  1  0
 20 62  1  0
 21 63  1  0
 21 64  1  0
 22 65  1  6
 23 66  1  0
 25 67  1  0
 25 68  1  0
 25 69  1  0
 26 70  1  0
 26 71  1  0
 26 72  1  0
 28 73  1  0
 28 74  1  0
 28 75  1  0
 29 76  1  0
 29 77  1  0
 30 78  1  0
 30 79  1  0
 32 80  1  0
 32 81  1  0
 32 82  1  0
M  END
>  <meeko>  (17) 
{"is_sidechain": [false], "intermolecular_energy": 2.731, "internal_energy": -0.839}

$$$$
EPH_relaxed_0001_pdb2pqr_Repair_89_r2_0001_out
     RDKit          3D

 82 86  0  0  0  0  0  0  0  0999 V2000
   -0.1040    9.3130   -4.2300 C   0  0  0  0  0  0  0  0  0  0  0  0
    0.0850    9.5170   -2.7240 C   0  0  2  0  0  0  0  0  0  0  0  0
   -0.6930    8.4770   -1.8940 C   0  0  0  0  0  0  0  0  0  0  0  0
   -2.2110    8.5470   -2.0870 C   0  0  0  0  0  0  0  0  0  0  0  0
   -2.7550    7.2750   -2.6620 C   0  0  2  0  0  0  0  0  0  0  0  0
   -3.7770    7.4540   -3.6520 O   0  0  0  0  0  0  0  0  0  0  0  0
   -4.1780    6.7970   -2.4390 C   0  0  0  0  0  0  0  0  0  0  0  0
   -5.1440    7.5850   -1.6110 C   0  0  0  0  0  0  0  0  0  0  0  0
   -4.4800    5.3410   -2.6130 C   0  0  0  0  0  0  0  0  0  0  0  0
   -0.3470   10.9260   -2.3330 C   0  0  1  0  0  0  0  0  0  0  0  0
   -1.5570   10.9310   -1.3610 C   0  0  0  0  0  0  0  0  0  0  0  0
   -1.3540   12.1310   -0.4010 C   0  0  0  0  0  0  0  0  0  0  0  0
   -0.2260   12.9650   -1.0510 C   0  0  1  0  0  0  0  0  0  0  0  0
   -0.9360   13.8070   -2.1570 C   0  0  0  0  0  0  0  0  0  0  0  0
    0.6110   13.8660   -0.0870 C   0  0  2  0  0  0  0  0  0  0  0  0
   -0.1860   14.9700    0.6310 C   0  0  0  0  0  0  0  0  0  0  0  0
   -0.2490   16.2790   -0.0850 C   0  0  0  0  0  0  0  0  0  0  0  0
    0.5410   16.6480   -1.1100 C   0  0  0  0  0  0  0  0  0  0  0  0
    1.6870   15.7460   -1.5870 C   0  0  1  0  0  0  0  0  0  0  0  0
    2.9710   16.5950   -1.7760 C   0  0  0  0  0  0  0  0  0  0  0  0
    2.7500   17.7930   -2.6960 C   0  0  0  0  0  0  0  0  0  0  0  0
    1.6440   18.6970   -2.1580 C   0  0  2  0  0  0  0  0  0  0  0  0
    2.0880   19.2910   -0.9340 O   0  0  0  0  0  0  0  0  0  0  0  0
    0.3030   17.9480   -1.9180 C   0  0  0  0  0  0  0  0  0  0  0  0
   -0.3300   17.5650   -3.2790 C   0  0  0  0  0  0  0  0  0  0  0  0
   -0.6840   18.9390   -1.2440 C   0  0  0  0  0  0  0  0  0  0  0  0
    1.9430   14.4360   -0.7240 C   0  0  1  0  0  0  0  0  0  0  0  0
    2.9010   14.7600    0.4630 C   0  0  0  0  0  0  0  0  0  0  0  0
    2.6840   13.3700   -1.6140 C   0  0  0  0  0  0  0  0  0  0  0  0
    1.7980   12.4290   -2.4540 C   0  0  0  0  0  0  0  0  0  0  0  0
    0.6900   11.8090   -1.5960 C   0  0  2  0  0  0  0  0  0  0  0  0
    1.3750   10.9370   -0.4890 C   0  0  0  0  0  0  0  0  0  0  0  0
   -0.8424    8.5160   -4.4022 H   0  0  0  0  0  0  0  0  0  0  0  0
   -0.4615   10.2486   -4.6847 H   0  0  0  0  0  0  0  0  0  0  0  0
    0.8562    9.0278   -4.6847 H   0  0  0  0  0  0  0  0  0  0  0  0
    1.1539    9.3808   -2.5030 H   0  0  0  0  0  0  0  0  0  0  0  0
   -0.3515    7.4731   -2.1866 H   0  0  0  0  0  0  0  0  0  0  0  0
   -0.4929    8.6958   -0.8347 H   0  0  0  0  0  0  0  0  0  0  0  0
   -2.6864    8.7296   -1.1120 H   0  0  0  0  0  0  0  0  0  0  0  0
   -2.4302    9.3632   -2.7911 H   0  0  0  0  0  0  0  0  0  0  0  0
   -1.7817    6.7768   -2.5413 H   0  0  0  0  0  0  0  0  0  0  0  0
   -4.9361    7.4154   -0.5442 H   0  0  0  0  0  0  0  0  0  0  0  0
   -5.0353    8.6554   -1.8401 H   0  0  0  0  0  0  0  0  0  0  0  0
   -6.1707    7.2635   -1.8401 H   0  0  0  0  0  0  0  0  0  0  0  0
   -4.5784    4.8664   -1.6256 H   0  0  0  0  0  0  0  0  0  0  0  0
   -5.4212    5.2258   -3.1706 H   0  0  0  0  0  0  0  0  0  0  0  0
   -3.6623    4.8610   -3.1706 H   0  0  0  0  0  0  0  0  0  0  0  0
   -0.5516   11.3400   -3.3314 H   0  0  0  0  0  0  0  0  0  0  0  0
   -2.4946   11.0504   -1.9238 H   0  0  0  0  0  0  0  0  0  0  0  0
   -1.6196    9.9850   -0.8032 H   0  0  0  0  0  0  0  0  0  0  0  0
   -2.2772   12.7235   -0.3196 H   0  0  0  0  0  0  0  0  0  0  0  0
   -1.0996   11.8098    0.6198 H   0  0  0  0  0  0  0  0  0  0  0  0
   -1.5765   14.5666   -1.6850 H   0  0  0  0  0  0  0  0  0  0  0  0
   -0.1793   14.3029   -2.7827 H   0  0  0  0  0  0  0  0  0  0  0  0
   -1.5525   13.1449   -2.7827 H   0  0  0  0  0  0  0  0  0  0  0  0
    0.9114   13.1557    0.6974 H   0  0  0  0  0  0  0  0  0  0  0  0
   -1.2157   14.6094    0.7714 H   0  0  0  0  0  0  0  0  0  0  0  0
    0.3450   15.1643    1.5745 H   0  0  0  0  0  0  0  0  0  0  0  0
   -1.0049   17.0026    0.2541 H   0  0  0  0  0  0  0  0  0  0  0  0
    1.3666   15.3344   -2.5555 H   0  0  0  0  0  0  0  0  0  0  0  0
    3.2994   16.9616   -0.7923 H   0  0  0  0  0  0  0  0  0  0  0  0
    3.7314   15.9514   -2.2424 H   0  0  0  0  0  0  0  0  0  0  0  0
    3.6840   18.3698   -2.7667 H   0  0  0  0  0  0  0  0  0  0  0  0
    2.4502   17.4236   -3.6878 H   0  0  0  0  0  0  0  0  0  0  0  0
    1.4438   19.4629   -2.9218 H   0  0  0  0  0  0  0  0  0  0  0  0
    2.4940   20.1470   -1.1530 H   0  0  0  0  0  0  0  0  0  0  0  0
   -1.2594   17.0027   -3.1058 H   0  0  0  0  0  0  0  0  0  0  0  0
   -0.5550   18.4786   -3.8488 H   0  0  0  0  0  0  0  0  0  0  0  0
    0.3749   16.9418   -3.8488 H   0  0  0  0  0  0  0  0  0  0  0  0
   -0.5994   18.8540   -0.1506 H   0  0  0  0  0  0  0  0  0  0  0  0
   -0.4396   19.9663   -1.5520 H   0  0  0  0  0  0  0  0  0  0  0  0
   -1.7123   18.6987   -1.5520 H   0  0  0  0  0  0  0  0  0  0  0  0
    2.3784   14.5833    1.4147 H   0  0  0  0  0  0  0  0  0  0  0  0
    3.7879   14.1118    0.4058 H   0  0  0  0  0  0  0  0  0  0  0  0
    3.2124   15.8134    0.4058 H   0  0  0  0  0  0  0  0  0  0  0  0
    3.3417   13.9147   -2.3073 H   0  0  0  0  0  0  0  0  0  0  0  0
    3.2065   12.7140   -0.9022 H   0  0  0  0  0  0  0  0  0  0  0  0
    1.3403   13.0021   -3.2738 H   0  0  0  0  0  0  0  0  0  0  0  0
    2.4263   11.6197   -2.8543 H   0  0  0  0  0  0  0  0  0  0  0  0
    1.0827   11.3091    0.5040 H   0  0  0  0  0  0  0  0  0  0  0  0
    1.0553    9.8900   -0.5969 H   0  0  0  0  0  0  0  0  0  0  0  0
    2.4679   10.9997   -0.5969 H   0  0  0  0  0  0  0  0  0  0  0  0
  1  2  1  0
  2  3  1  0
  3  4  1  0
  4  5  1  0
  5  6  1  0
  6  7  1  0
  7  8  1  0
  7  9  1  0
  2 10  1  0
 10 11  1  0
 11 12  1  0
 12 13  1  0
 13 14  1  6
 13 15  1  0
 15 16  1  0
 16 17  1  0
 17 18  2  0
 18 19  1  0
 19 20  1  0
 20 21  1  0
 21 22  1  0
 22 23  1  0
 22 24  1  0
 24 25  1  0
 24 26  1  0
 19 27  1  0
 27 28  1  1
 27 29  1  0
 29 30  1  0
 30 31  1  0
 31 32  1  1
  7  5  1  0
 31 10  1  0
 31 13  1  0
 27 15  1  0
 24 18  1  0
  1 33  1  0
  1 34  1  0
  1 35  1  0
  2 36  1  6
  3 37  1  0
  3 38  1  0
  4 39  1  0
  4 40  1  0
  5 41  1  6
  8 42  1  0
  8 43  1  0
  8 44  1  0
  9 45  1  0
  9 46  1  0
  9 47  1  0
 10 48  1  6
 11 49  1  0
 11 50  1  0
 12 51  1  0
 12 52  1  0
 14 53  1  0
 14 54  1  0
 14 55  1  0
 15 56  1  1
 16 57  1  0
 16 58  1  0
 17 59  1  0
 19 60  1  6
 20 61  1  0
 20 62  1  0
 21 63  1  0
 21 64  1  0
 22 65  1  6
 23 66  1  0
 25 67  1  0
 25 68  1  0
 25 69  1  0
 26 70  1  0
 26 71  1  0
 26 72  1  0
 28 73  1  0
 28 74  1  0
 28 75  1  0
 29 76  1  0
 29 77  1  0
 30 78  1  0
 30 79  1  0
 32 80  1  0
 32 81  1  0
 32 82  1  0
M  END
>  <meeko>  (18) 
{"is_sidechain": [false], "intermolecular_energy": 2.731, "internal_energy": -0.839}

$$$$
EPH_relaxed_0001_pdb2pqr_Repair_89_r2_0001_out
     RDKit          3D

 82 86  0  0  0  0  0  0  0  0999 V2000
  -15.2790    8.1080    0.2670 C   0  0  0  0  0  0  0  0  0  0  0  0
  -14.4850    8.4740   -0.9900 C   0  0  2  0  0  0  0  0  0  0  0  0
  -14.7120    7.4660   -2.1350 C   0  0  0  0  0  0  0  0  0  0  0  0
  -15.2810    8.0980   -3.4080 C   0  0  0  0  0  0  0  0  0  0  0  0
  -15.1520    7.1820   -4.5870 C   0  0  2  0  0  0  0  0  0  0  0  0
  -13.8500    7.1580   -5.1870 O   0  0  0  0  0  0  0  0  0  0  0  0
  -14.9150    7.6700   -6.0040 C   0  0  0  0  0  0  0  0  0  0  0  0
  -14.7950    9.1280   -6.3170 C   0  0  0  0  0  0  0  0  0  0  0  0
  -15.2870    6.7710   -7.1420 C   0  0  0  0  0  0  0  0  0  0  0  0
  -13.0000    8.5610   -0.6600 C   0  0  1  0  0  0  0  0  0  0  0  0
  -12.7390    8.9060    0.8310 C   0  0  0  0  0  0  0  0  0  0  0  0
  -11.4550    8.1430    1.2480 C   0  0  0  0  0  0  0  0  0  0  0  0
  -10.8390    7.6580   -0.0850 C   0  0  1  0  0  0  0  0  0  0  0  0
  -10.0730    8.8960   -0.6470 C   0  0  0  0  0  0  0  0  0  0  0  0
   -9.9180    6.3970   -0.0030 C   0  0  2  0  0  0  0  0  0  0  0  0
   -8.6510    6.5700    0.8540 C   0  0  0  0  0  0  0  0  0  0  0  0
   -7.4460    7.0560    0.1190 C   0  0  0  0  0  0  0  0  0  0  0  0
   -7.2990    7.0710   -1.2190 C   0  0  0  0  0  0  0  0  0  0  0  0
   -8.3750    6.4750   -2.1370 C   0  0  1  0  0  0  0  0  0  0  0  0
   -7.7010    5.5820   -3.2110 C   0  0  0  0  0  0  0  0  0  0  0  0
   -6.6150    6.3190   -3.9880 C   0  0  0  0  0  0  0  0  0  0  0  0
   -5.5340    6.8460   -3.0470 C   0  0  2  0  0  0  0  0  0  0  0  0
   -4.8400    5.7340   -2.4730 O   0  0  0  0  0  0  0  0  0  0  0  0
   -6.0950    7.7520   -1.9160 C   0  0  0  0  0  0  0  0  0  0  0  0
   -6.5780    9.0960   -2.5170 C   0  0  0  0  0  0  0  0  0  0  0  0
   -4.9240    8.1000   -0.9580 C   0  0  0  0  0  0  0  0  0  0  0  0
   -9.5830    5.7460   -1.4060 C   0  0  1  0  0  0  0  0  0  0  0  0
   -9.2160    4.2560   -1.1290 C   0  0  0  0  0  0  0  0  0  0  0  0
  -10.8290    5.7250   -2.3680 C   0  0  0  0  0  0  0  0  0  0  0  0
  -11.7670    6.9460   -2.3170 C   0  0  0  0  0  0  0  0  0  0  0  0
  -12.1480    7.2850   -0.8730 C   0  0  2  0  0  0  0  0  0  0  0  0
  -12.9400    6.0660   -0.2890 C   0  0  0  0  0  0  0  0  0  0  0  0
  -14.6959    8.3768    1.1602 H   0  0  0  0  0  0  0  0  0  0  0  0
  -16.2317    8.6578    0.2719 H   0  0  0  0  0  0  0  0  0  0  0  0
  -15.4798    7.0265    0.2719 H   0  0  0  0  0  0  0  0  0  0  0  0
  -14.8470    9.4534   -1.3359 H   0  0  0  0  0  0  0  0  0  0  0  0
  -13.7478    6.9972   -2.3811 H   0  0  0  0  0  0  0  0  0  0  0  0
  -15.4546    6.7369   -1.7787 H   0  0  0  0  0  0  0  0  0  0  0  0
  -16.3453    8.3255   -3.2481 H   0  0  0  0  0  0  0  0  0  0  0  0
  -14.7099    9.0137   -3.6211 H   0  0  0  0  0  0  0  0  0  0  0  0
  -15.8917    6.4892   -4.1593 H   0  0  0  0  0  0  0  0  0  0  0  0
  -14.7478    9.7016   -5.3796 H   0  0  0  0  0  0  0  0  0  0  0  0
  -13.8794    9.3035   -6.9008 H   0  0  0  0  0  0  0  0  0  0  0  0
  -15.6696    9.4509   -6.9008 H   0  0  0  0  0  0  0  0  0  0  0  0
  -15.6795    5.8225   -6.7468 H   0  0  0  0  0  0  0  0  0  0  0  0
  -16.0573    7.2584   -7.7577 H   0  0  0  0  0  0  0  0  0  0  0  0
  -14.3975    6.5716   -7.7577 H   0  0  0  0  0  0  0  0  0  0  0  0
  -12.6971    9.3390   -1.3762 H   0  0  0  0  0  0  0  0  0  0  0  0
  -12.5910    9.9896    0.9489 H   0  0  0  0  0  0  0  0  0  0  0  0
  -13.5935    8.6147    1.4595 H   0  0  0  0  0  0  0  0  0  0  0  0
  -10.7599    8.8122    1.7762 H   0  0  0  0  0  0  0  0  0  0  0  0
  -11.6687    7.3115    1.9357 H   0  0  0  0  0  0  0  0  0  0  0  0
   -9.6965    9.5045    0.1885 H   0  0  0  0  0  0  0  0  0  0  0  0
   -9.2275    8.5555   -1.2628 H   0  0  0  0  0  0  0  0  0  0  0  0
  -10.7550    9.5007   -1.2628 H   0  0  0  0  0  0  0  0  0  0  0  0
  -10.5498    5.6778    0.5388 H   0  0  0  0  0  0  0  0  0  0  0  0
   -8.8766    7.2923    1.6523 H   0  0  0  0  0  0  0  0  0  0  0  0
   -8.3963    5.5670    1.2268 H   0  0  0  0  0  0  0  0  0  0  0  0
   -6.6071    7.4339    0.7218 H   0  0  0  0  0  0  0  0  0  0  0  0
   -8.8714    7.3294   -2.6204 H   0  0  0  0  0  0  0  0  0  0  0  0
   -7.2489    4.7118   -2.7127 H   0  0  0  0  0  0  0  0  0  0  0  0
   -8.4778    5.2797   -3.9288 H   0  0  0  0  0  0  0  0  0  0  0  0
   -6.1574    5.6277   -4.7110 H   0  0  0  0  0  0  0  0  0  0  0  0
   -7.0735    7.1722   -4.5094 H   0  0  0  0  0  0  0  0  0  0  0  0
   -4.8549    7.4731   -3.6433 H   0  0  0  0  0  0  0  0  0  0  0  0
   -3.9730    6.0530   -2.1710 H   0  0  0  0  0  0  0  0  0  0  0  0
   -6.8283    9.7926   -1.7033 H   0  0  0  0  0  0  0  0  0  0  0  0
   -5.7791    9.5285   -3.1372 H   0  0  0  0  0  0  0  0  0  0  0  0
   -7.4695    8.9210   -3.1372 H   0  0  0  0  0  0  0  0  0  0  0  0
   -5.2609    7.9999    0.0843 H   0  0  0  0  0  0  0  0  0  0  0  0
   -4.0848    7.4124   -1.1398 H   0  0  0  0  0  0  0  0  0  0  0  0
   -4.5965    9.1343   -1.1398 H   0  0  0  0  0  0  0  0  0  0  0  0
   -9.1738    4.0845   -0.0433 H   0  0  0  0  0  0  0  0  0  0  0  0
   -9.9798    3.6014   -1.5742 H   0  0  0  0  0  0  0  0  0  0  0  0
   -8.2356    4.0310   -1.5742 H   0  0  0  0  0  0  0  0  0  0  0  0
  -10.4527    5.6373   -3.3979 H   0  0  0  0  0  0  0  0  0  0  0  0
  -11.4415    4.8773   -2.0270 H   0  0  0  0  0  0  0  0  0  0  0  0
  -11.2570    7.8105   -2.7670 H   0  0  0  0  0  0  0  0  0  0  0  0
  -12.6845    6.7068   -2.8747 H   0  0  0  0  0  0  0  0  0  0  0  0
  -12.9147    6.1049    0.8100 H   0  0  0  0  0  0  0  0  0  0  0  0
  -13.9838    6.1079   -0.6335 H   0  0  0  0  0  0  0  0  0  0  0  0
  -12.4775    5.1293   -0.6335 H   0  0  0  0  0  0  0  0  0  0  0  0
  1  2  1  0
  2  3  1  0
  3  4  1  0
  4  5  1  0
  5  6  1  0
  6  7  1  0
  7  8  1  0
  7  9  1  0
  2 10  1  0
 10 11  1  0
 11 12  1  0
 12 13  1  0
 13 14  1  6
 13 15  1  0
 15 16  1  0
 16 17  1  0
 17 18  2  0
 18 19  1  0
 19 20  1  0
 20 21  1  0
 21 22  1  0
 22 23  1  0
 22 24  1  0
 24 25  1  0
 24 26  1  0
 19 27  1  0
 27 28  1  1
 27 29  1  0
 29 30  1  0
 30 31  1  0
 31 32  1  1
  7  5  1  0
 31 10  1  0
 31 13  1  0
 27 15  1  0
 24 18  1  0
  1 33  1  0
  1 34  1  0
  1 35  1  0
  2 36  1  6
  3 37  1  0
  3 38  1  0
  4 39  1  0
  4 40  1  0
  5 41  1  6
  8 42  1  0
  8 43  1  0
  8 44  1  0
  9 45  1  0
  9 46  1  0
  9 47  1  0
 10 48  1  6
 11 49  1  0
 11 50  1  0
 12 51  1  0
 12 52  1  0
 14 53  1  0
 14 54  1  0
 14 55  1  0
 15 56  1  1
 16 57  1  0
 16 58  1  0
 17 59  1  0
 19 60  1  6
 20 61  1  0
 20 62  1  0
 21 63  1  0
 21 64  1  0
 22 65  1  6
 23 66  1  0
 25 67  1  0
 25 68  1  0
 25 69  1  0
 26 70  1  0
 26 71  1  0
 26 72  1  0
 28 73  1  0
 28 74  1  0
 28 75  1  0
 29 76  1  0
 29 77  1  0
 30 78  1  0
 30 79  1  0
 32 80  1  0
 32 81  1  0
 32 82  1  0
M  END
>  <meeko>  (19) 
{"is_sidechain": [false], "intermolecular_energy": 2.731, "internal_energy": -0.839}

$$$$
