EPH_relaxed_0001_pdb2pqr_Repair_129_r2_0001_out
     RDKit          3D

 82 86  0  0  0  0  0  0  0  0999 V2000
   -1.5880    8.5790   -1.8090 C   0  0  0  0  0  0  0  0  0  0  0  0
   -1.9920    9.1580   -0.4510 C   0  0  2  0  0  0  0  0  0  0  0  0
   -3.4800    9.5580   -0.4090 C   0  0  0  0  0  0  0  0  0  0  0  0
   -4.4340    8.3680   -0.2810 C   0  0  0  0  0  0  0  0  0  0  0  0
   -5.0690    8.0220   -1.5940 C   0  0  2  0  0  0  0  0  0  0  0  0
   -6.3350    8.6510   -1.8300 O   0  0  0  0  0  0  0  0  0  0  0  0
   -6.3500    7.2190   -1.7180 C   0  0  0  0  0  0  0  0  0  0  0  0
   -7.0730    6.7110   -0.5090 C   0  0  0  0  0  0  0  0  0  0  0  0
   -6.6310    6.5150   -3.0090 C   0  0  0  0  0  0  0  0  0  0  0  0
   -1.1180   10.3620   -0.1180 C   0  0  1  0  0  0  0  0  0  0  0  0
   -0.0380   10.0400    0.9490 C   0  0  0  0  0  0  0  0  0  0  0  0
    1.2160   10.8750    0.5810 C   0  0  0  0  0  0  0  0  0  0  0  0
    0.7140   11.8880   -0.4740 C   0  0  1  0  0  0  0  0  0  0  0  0
    0.0420   13.0290    0.3530 C   0  0  0  0  0  0  0  0  0  0  0  0
    1.7900   12.4480   -1.4610 C   0  0  2  0  0  0  0  0  0  0  0  0
    2.9230   13.2550   -0.8020 C   0  0  0  0  0  0  0  0  0  0  0  0
    2.6750   14.7220   -0.6830 C   0  0  0  0  0  0  0  0  0  0  0  0
    1.7210   15.4100   -1.3390 C   0  0  0  0  0  0  0  0  0  0  0  0
    0.8300   14.7220   -2.3810 C   0  0  1  0  0  0  0  0  0  0  0  0
    0.7450   15.6050   -3.6530 C   0  0  0  0  0  0  0  0  0  0  0  0
    0.2920   17.0300   -3.3470 C   0  0  0  0  0  0  0  0  0  0  0  0
    1.2360   17.7000   -2.3520 C   0  0  2  0  0  0  0  0  0  0  0  0
    2.5110   17.8800   -2.9760 O   0  0  0  0  0  0  0  0  0  0  0  0
    1.4080   16.8950   -1.0340 C   0  0  0  0  0  0  0  0  0  0  0  0
    0.0970   16.9570   -0.2110 C   0  0  0  0  0  0  0  0  0  0  0  0
    2.4910   17.6070   -0.1780 C   0  0  0  0  0  0  0  0  0  0  0  0
    1.1900   13.2090   -2.7110 C   0  0  1  0  0  0  0  0  0  0  0  0
    2.2740   13.1520   -3.8300 C   0  0  0  0  0  0  0  0  0  0  0  0
   -0.0860   12.4930   -3.2920 C   0  0  0  0  0  0  0  0  0  0  0  0
   -1.0500   11.8560   -2.2720 C   0  0  0  0  0  0  0  0  0  0  0  0
   -0.2900   10.9790   -1.2720 C   0  0  2  0  0  0  0  0  0  0  0  0
    0.3790    9.8100   -2.0730 C   0  0  0  0  0  0  0  0  0  0  0  0
   -0.9647    7.6857   -1.6559 H   0  0  0  0  0  0  0  0  0  0  0  0
   -2.4911    8.3037   -2.3735 H   0  0  0  0  0  0  0  0  0  0  0  0
   -1.0179    9.3315   -2.3735 H   0  0  0  0  0  0  0  0  0  0  0  0
   -1.8416    8.3705    0.3021 H   0  0  0  0  0  0  0  0  0  0  0  0
   -3.6366   10.2229    0.4532 H   0  0  0  0  0  0  0  0  0  0  0  0
   -3.7074   10.0506   -1.3659 H   0  0  0  0  0  0  0  0  0  0  0  0
   -3.8699    7.4965    0.0827 H   0  0  0  0  0  0  0  0  0  0  0  0
   -5.2324    8.6432    0.4238 H   0  0  0  0  0  0  0  0  0  0  0  0
   -4.0830    7.9159   -2.0700 H   0  0  0  0  0  0  0  0  0  0  0  0
   -6.5649    7.0680    0.3990 H   0  0  0  0  0  0  0  0  0  0  0  0
   -8.1089    7.0808   -0.5189 H   0  0  0  0  0  0  0  0  0  0  0  0
   -7.0762    5.6110   -0.5189 H   0  0  0  0  0  0  0  0  0  0  0  0
   -7.0314    5.5120   -2.8001 H   0  0  0  0  0  0  0  0  0  0  0  0
   -7.3682    7.0908   -3.5877 H   0  0  0  0  0  0  0  0  0  0  0  0
   -5.6999    6.4249   -3.5877 H   0  0  0  0  0  0  0  0  0  0  0  0
   -1.8946   11.0694    0.2082 H   0  0  0  0  0  0  0  0  0  0  0  0
   -0.3990   10.3193    1.9499 H   0  0  0  0  0  0  0  0  0  0  0  0
    0.1937    8.9648    0.9651 H   0  0  0  0  0  0  0  0  0  0  0  0
    1.6078   11.3979    1.4659 H   0  0  0  0  0  0  0  0  0  0  0  0
    2.0371   10.2494    0.2011 H   0  0  0  0  0  0  0  0  0  0  0  0
    0.1630   12.8236    1.4269 H   0  0  0  0  0  0  0  0  0  0  0  0
    0.5187   13.9895    0.1074 H   0  0  0  0  0  0  0  0  0  0  0  0
   -1.0291   13.0779    0.1074 H   0  0  0  0  0  0  0  0  0  0  0  0
    2.2601   11.5296   -1.8426 H   0  0  0  0  0  0  0  0  0  0  0  0
    3.0819   12.8540    0.2099 H   0  0  0  0  0  0  0  0  0  0  0  0
    3.7970   13.1466   -1.4611 H   0  0  0  0  0  0  0  0  0  0  0  0
    3.3265   15.2892   -0.0019 H   0  0  0  0  0  0  0  0  0  0  0  0
   -0.1650   14.6344   -1.9202 H   0  0  0  0  0  0  0  0  0  0  0  0
    1.7392   15.6441   -4.1222 H   0  0  0  0  0  0  0  0  0  0  0  0
   -0.0015   15.1540   -4.3233 H   0  0  0  0  0  0  0  0  0  0  0  0
    0.2800   17.6123   -4.2802 H   0  0  0  0  0  0  0  0  0  0  0  0
   -0.7146   16.9915   -2.9051 H   0  0  0  0  0  0  0  0  0  0  0  0
    0.7904   18.6663   -2.0733 H   0  0  0  0  0  0  0  0  0  0  0  0
    2.8140   18.7810   -2.7710 H   0  0  0  0  0  0  0  0  0  0  0  0
    0.3371   16.9456    0.8624 H   0  0  0  0  0  0  0  0  0  0  0  0
   -0.4460   17.8818   -0.4555 H   0  0  0  0  0  0  0  0  0  0  0  0
   -0.5309   16.0875   -0.4555 H   0  0  0  0  0  0  0  0  0  0  0  0
    2.2691   17.4611    0.8895 H   0  0  0  0  0  0  0  0  0  0  0  0
    3.4788   17.1816   -0.4086 H   0  0  0  0  0  0  0  0  0  0  0  0
    2.4921   18.6826   -0.4086 H   0  0  0  0  0  0  0  0  0  0  0  0
    3.2723   13.0995   -3.3711 H   0  0  0  0  0  0  0  0  0  0  0  0
    2.1101   12.2612   -4.4542 H   0  0  0  0  0  0  0  0  0  0  0  0
    2.2044   14.0550   -4.4542 H   0  0  0  0  0  0  0  0  0  0  0  0
   -0.6544   13.2398   -3.8658 H   0  0  0  0  0  0  0  0  0  0  0  0
    0.3011   11.6522   -3.8863 H   0  0  0  0  0  0  0  0  0  0  0  0
   -1.5738   12.6539   -1.7252 H   0  0  0  0  0  0  0  0  0  0  0  0
   -1.7689   11.2254   -2.8156 H   0  0  0  0  0  0  0  0  0  0  0  0
    0.7988    9.0764   -1.3690 H   0  0  0  0  0  0  0  0  0  0  0  0
   -0.3756    9.3204   -2.7061 H   0  0  0  0  0  0  0  0  0  0  0  0
    1.1834   10.2126   -2.7061 H   0  0  0  0  0  0  0  0  0  0  0  0
  1  2  1  0
  2  3  1  0
  3  4  1  0
  4  5  1  0
  5  6  1  0
  6  7  1  0
  7  8  1  0
  7  9  1  0
  2 10  1  0
 10 11  1  0
 11 12  1  0
 12 13  1  0
 13 14  1  1
 13 15  1  0
 15 16  1  0
 16 17  1  0
 17 18  2  0
 18 19  1  0
 19 20  1  0
 20 21  1  0
 21 22  1  0
 22 23  1  0
 22 24  1  0
 24 25  1  0
 24 26  1  0
 19 27  1  0
 27 28  1  6
 27 29  1  0
 29 30  1  0
 30 31  1  0
 31 32  1  6
  7  5  1  0
 31 10  1  0
 31 13  1  0
 27 15  1  0
 24 18  1  0
  1 33  1  0
  1 34  1  0
  1 35  1  0
  2 36  1  1
  3 37  1  0
  3 38  1  0
  4 39  1  0
  4 40  1  0
  5 41  1  6
  8 42  1  0
  8 43  1  0
  8 44  1  0
  9 45  1  0
  9 46  1  0
  9 47  1  0
 10 48  1  1
 11 49  1  0
 11 50  1  0
 12 51  1  0
 12 52  1  0
 14 53  1  0
 14 54  1  0
 14 55  1  0
 15 56  1  6
 16 57  1  0
 16 58  1  0
 17 59  1  0
 19 60  1  1
 20 61  1  0
 20 62  1  0
 21 63  1  0
 21 64  1  0
 22 65  1  1
 23 66  1  0
 25 67  1  0
 25 68  1  0
 25 69  1  0
 26 70  1  0
 26 71  1  0
 26 72  1  0
 28 73  1  0
 28 74  1  0
 28 75  1  0
 29 76  1  0
 29 77  1  0
 30 78  1  0
 30 79  1  0
 32 80  1  0
 32 81  1  0
 32 82  1  0
M  END
>  <meeko>  (1) 
{"is_sidechain": [false], "intermolecular_energy": 2.731, "internal_energy": -0.839}

$$$$
EPH_relaxed_0001_pdb2pqr_Repair_129_r2_0001_out
     RDKit          3D

 82 86  0  0  0  0  0  0  0  0999 V2000
    1.9830   19.6620   -0.6500 C   0  0  0  0  0  0  0  0  0  0  0  0
    2.3470   18.4630    0.2320 C   0  0  2  0  0  0  0  0  0  0  0  0
    3.8060   18.0110    0.0230 C   0  0  0  0  0  0  0  0  0  0  0  0
    4.6770   18.1460    1.2750 C   0  0  0  0  0  0  0  0  0  0  0  0
    4.0270   19.0110    2.3120 C   0  0  2  0  0  0  0  0  0  0  0  0
    4.7650   20.1910    2.6550 O   0  0  0  0  0  0  0  0  0  0  0  0
    4.5970   19.2220    3.7030 C   0  0  0  0  0  0  0  0  0  0  0  0
    5.8700   18.5630    4.1320 C   0  0  0  0  0  0  0  0  0  0  0  0
    3.6740   19.6680    4.7940 C   0  0  0  0  0  0  0  0  0  0  0  0
    1.3970   17.3050   -0.0480 C   0  0  1  0  0  0  0  0  0  0  0  0
    0.1190   17.7500   -0.8070 C   0  0  0  0  0  0  0  0  0  0  0  0
   -0.2650   16.5870   -1.7580 C   0  0  0  0  0  0  0  0  0  0  0  0
    0.5960   15.3940   -1.2820 C   0  0  1  0  0  0  0  0  0  0  0  0
   -0.1710   14.8100   -0.0550 C   0  0  0  0  0  0  0  0  0  0  0  0
    0.9010   14.2930   -2.3490 C   0  0  2  0  0  0  0  0  0  0  0  0
   -0.3340   13.5560   -2.8980 C   0  0  0  0  0  0  0  0  0  0  0  0
   -0.7270   12.3260   -2.1500 C   0  0  0  0  0  0  0  0  0  0  0  0
    0.0430   11.6720   -1.2600 C   0  0  0  0  0  0  0  0  0  0  0  0
    1.4910   12.1080   -1.0010 C   0  0  1  0  0  0  0  0  0  0  0  0
    2.4150   10.8620   -1.0060 C   0  0  0  0  0  0  0  0  0  0  0  0
    1.9480    9.7830   -0.0340 C   0  0  0  0  0  0  0  0  0  0  0  0
    0.5260    9.3340   -0.3590 C   0  0  2  0  0  0  0  0  0  0  0  0
    0.5320    8.6660   -1.6240 O   0  0  0  0  0  0  0  0  0  0  0  0
   -0.4940   10.5070   -0.3930 C   0  0  0  0  0  0  0  0  0  0  0  0
   -0.7250   11.0370    1.0440 C   0  0  0  0  0  0  0  0  0  0  0  0
   -1.8580    9.9400   -0.8710 C   0  0  0  0  0  0  0  0  0  0  0  0
    2.0390   13.2780   -1.9270 C   0  0  1  0  0  0  0  0  0  0  0  0
    2.6190   12.6840   -3.2470 C   0  0  0  0  0  0  0  0  0  0  0  0
    3.2370   13.9920   -1.1970 C   0  0  0  0  0  0  0  0  0  0  0  0
    2.8800   15.1510   -0.2460 C   0  0  0  0  0  0  0  0  0  0  0  0
    1.9310   16.1440   -0.9240 C   0  0  2  0  0  0  0  0  0  0  0  0
    2.6830   16.7640   -2.1500 C   0  0  0  0  0  0  0  0  0  0  0  0
    1.7225   20.5201   -0.0130 H   0  0  0  0  0  0  0  0  0  0  0  0
    2.8420   19.9242   -1.2851 H   0  0  0  0  0  0  0  0  0  0  0  0
    1.1232   19.4024   -1.2851 H   0  0  0  0  0  0  0  0  0  0  0  0
    2.2470   18.7801    1.2805 H   0  0  0  0  0  0  0  0  0  0  0  0
    3.8018   16.9550   -0.2850 H   0  0  0  0  0  0  0  0  0  0  0  0
    4.2402   18.6698   -0.7435 H   0  0  0  0  0  0  0  0  0  0  0  0
    4.8469   17.1460    1.7005 H   0  0  0  0  0  0  0  0  0  0  0  0
    5.6272   18.6167    0.9825 H   0  0  0  0  0  0  0  0  0  0  0  0
    3.0258   18.7199    1.9614 H   0  0  0  0  0  0  0  0  0  0  0  0
    5.9179   18.5382    5.2307 H   0  0  0  0  0  0  0  0  0  0  0  0
    5.9011   17.5356    3.7404 H   0  0  0  0  0  0  0  0  0  0  0  0
    6.7269   19.1308    3.7404 H   0  0  0  0  0  0  0  0  0  0  0  0
    4.1285   19.4484    5.7714 H   0  0  0  0  0  0  0  0  0  0  0  0
    3.4984   20.7503    4.7061 H   0  0  0  0  0  0  0  0  0  0  0  0
    2.7169   19.1330    4.7061 H   0  0  0  0  0  0  0  0  0  0  0  0
    1.2264   16.9538    0.9804 H   0  0  0  0  0  0  0  0  0  0  0  0
   -0.6970   17.9419   -0.0947 H   0  0  0  0  0  0  0  0  0  0  0  0
    0.2974   18.6779   -1.3702 H   0  0  0  0  0  0  0  0  0  0  0  0
   -1.3361   16.3520   -1.6714 H   0  0  0  0  0  0  0  0  0  0  0  0
   -0.0861   16.8355   -2.8145 H   0  0  0  0  0  0  0  0  0  0  0  0
    0.2976   15.1668    0.8740 H   0  0  0  0  0  0  0  0  0  0  0  0
   -1.2197   15.1403   -0.0870 H   0  0  0  0  0  0  0  0  0  0  0  0
   -0.1316   13.7112   -0.0870 H   0  0  0  0  0  0  0  0  0  0  0  0
    1.2954   14.8829   -3.1895 H   0  0  0  0  0  0  0  0  0  0  0  0
   -1.1841   14.2537   -2.8754 H   0  0  0  0  0  0  0  0  0  0  0  0
   -0.0642   13.2229   -3.9111 H   0  0  0  0  0  0  0  0  0  0  0  0
   -1.7308   11.9192   -2.3420 H   0  0  0  0  0  0  0  0  0  0  0  0
    1.4955   12.5723   -0.0038 H   0  0  0  0  0  0  0  0  0  0  0  0
    2.4309   10.4390   -2.0213 H   0  0  0  0  0  0  0  0  0  0  0  0
    3.4161   11.1877   -0.6872 H   0  0  0  0  0  0  0  0  0  0  0  0
    2.6237    8.9179   -0.1049 H   0  0  0  0  0  0  0  0  0  0  0  0
    1.9606   10.1987    0.9843 H   0  0  0  0  0  0  0  0  0  0  0  0
    0.2010    8.6585    0.4460 H   0  0  0  0  0  0  0  0  0  0  0  0
    0.8840    7.7710   -1.4820 H   0  0  0  0  0  0  0  0  0  0  0  0
   -0.3953   10.2805    1.7713 H   0  0  0  0  0  0  0  0  0  0  0  0
   -0.1486   11.9623    1.1906 H   0  0  0  0  0  0  0  0  0  0  0  0
   -1.7952   11.2446    1.1906 H   0  0  0  0  0  0  0  0  0  0  0  0
   -2.4750    9.6835    0.0028 H   0  0  0  0  0  0  0  0  0  0  0  0
   -2.3775   10.6967   -1.4772 H   0  0  0  0  0  0  0  0  0  0  0  0
   -1.6880    9.0380   -1.4772 H   0  0  0  0  0  0  0  0  0  0  0  0
    3.3687   11.9162   -3.0052 H   0  0  0  0  0  0  0  0  0  0  0  0
    1.8061   12.2309   -3.8335 H   0  0  0  0  0  0  0  0  0  0  0  0
    3.0913   13.4859   -3.8335 H   0  0  0  0  0  0  0  0  0  0  0  0
    3.7694   13.2304   -0.6083 H   0  0  0  0  0  0  0  0  0  0  0  0
    3.8308   14.4518   -2.0007 H   0  0  0  0  0  0  0  0  0  0  0  0
    2.3924   14.7428    0.6516 H   0  0  0  0  0  0  0  0  0  0  0  0
    3.8056   15.6798    0.0254 H   0  0  0  0  0  0  0  0  0  0  0  0
    3.4854   17.4256   -1.7916 H   0  0  0  0  0  0  0  0  0  0  0  0
    3.1172   15.9579   -2.7597 H   0  0  0  0  0  0  0  0  0  0  0  0
    1.9745   17.3439   -2.7597 H   0  0  0  0  0  0  0  0  0  0  0  0
  1  2  1  0
  2  3  1  0
  3  4  1  0
  4  5  1  0
  5  6  1  0
  6  7  1  0
  7  8  1  0
  7  9  1  0
  2 10  1  0
 10 11  1  0
 11 12  1  0
 12 13  1  0
 13 14  1  1
 13 15  1  0
 15 16  1  0
 16 17  1  0
 17 18  2  0
 18 19  1  0
 19 20  1  0
 20 21  1  0
 21 22  1  0
 22 23  1  0
 22 24  1  0
 24 25  1  0
 24 26  1  0
 19 27  1  0
 27 28  1  6
 27 29  1  0
 29 30  1  0
 30 31  1  0
 31 32  1  6
  7  5  1  0
 31 10  1  0
 31 13  1  0
 27 15  1  0
 24 18  1  0
  1 33  1  0
  1 34  1  0
  1 35  1  0
  2 36  1  1
  3 37  1  0
  3 38  1  0
  4 39  1  0
  4 40  1  0
  5 41  1  1
  8 42  1  0
  8 43  1  0
  8 44  1  0
  9 45  1  0
  9 46  1  0
  9 47  1  0
 10 48  1  1
 11 49  1  0
 11 50  1  0
 12 51  1  0
 12 52  1  0
 14 53  1  0
 14 54  1  0
 14 55  1  0
 15 56  1  6
 16 57  1  0
 16 58  1  0
 17 59  1  0
 19 60  1  1
 20 61  1  0
 20 62  1  0
 21 63  1  0
 21 64  1  0
 22 65  1  1
 23 66  1  0
 25 67  1  0
 25 68  1  0
 25 69  1  0
 26 70  1  0
 26 71  1  0
 26 72  1  0
 28 73  1  0
 28 74  1  0
 28 75  1  0
 29 76  1  0
 29 77  1  0
 30 78  1  0
 30 79  1  0
 32 80  1  0
 32 81  1  0
 32 82  1  0
M  END
>  <meeko>  (2) 
{"is_sidechain": [false], "intermolecular_energy": 2.731, "internal_energy": -0.839}

$$$$
EPH_relaxed_0001_pdb2pqr_Repair_129_r2_0001_out
     RDKit          3D

 82 86  0  0  0  0  0  0  0  0999 V2000
    0.4840   18.4890   -0.0100 C   0  0  0  0  0  0  0  0  0  0  0  0
    1.5550   17.4120   -0.2040 C   0  0  2  0  0  0  0  0  0  0  0  0
    2.7930   17.9510   -0.9480 C   0  0  0  0  0  0  0  0  0  0  0  0
    4.0250   18.1140   -0.0540 C   0  0  0  0  0  0  0  0  0  0  0  0
    3.6550   18.5740    1.3230 C   0  0  2  0  0  0  0  0  0  0  0  0
    3.8730   19.9700    1.5680 O   0  0  0  0  0  0  0  0  0  0  0  0
    4.6670   19.0580    2.3450 C   0  0  0  0  0  0  0  0  0  0  0  0
    6.1300   19.1050    2.0320 C   0  0  0  0  0  0  0  0  0  0  0  0
    4.2950   19.0200    3.7940 C   0  0  0  0  0  0  0  0  0  0  0  0
    0.9680   16.2260   -0.9600 C   0  0  1  0  0  0  0  0  0  0  0  0
    0.8060   16.5070   -2.4780 C   0  0  0  0  0  0  0  0  0  0  0  0
    1.0840   15.1700   -3.2130 C   0  0  0  0  0  0  0  0  0  0  0  0
    1.0680   14.1010   -2.0950 C   0  0  1  0  0  0  0  0  0  0  0  0
   -0.4440   13.7980   -1.8510 C   0  0  0  0  0  0  0  0  0  0  0  0
    1.8790   12.7940   -2.3770 C   0  0  2  0  0  0  0  0  0  0  0  0
    1.3860   11.9660   -3.5760 C   0  0  0  0  0  0  0  0  0  0  0  0
    0.3640   10.9260   -3.2560 C   0  0  0  0  0  0  0  0  0  0  0  0
    0.0690   10.4730   -2.0230 C   0  0  0  0  0  0  0  0  0  0  0  0
    0.8650   10.9450   -0.7990 C   0  0  1  0  0  0  0  0  0  0  0  0
    1.2430    9.7210    0.0760 C   0  0  0  0  0  0  0  0  0  0  0  0
    0.0300    8.8790    0.4590 C   0  0  0  0  0  0  0  0  0  0  0  0
   -0.7010    8.3800   -0.7850 C   0  0  2  0  0  0  0  0  0  0  0  0
    0.1440    7.4560   -1.4770 O   0  0  0  0  0  0  0  0  0  0  0  0
   -1.1230    9.5240   -1.7480 C   0  0  0  0  0  0  0  0  0  0  0  0
   -2.2640   10.3510   -1.1050 C   0  0  0  0  0  0  0  0  0  0  0  0
   -1.7230    8.8770   -3.0250 C   0  0  0  0  0  0  0  0  0  0  0  0
    2.1090   11.8860   -1.1020 C   0  0  1  0  0  0  0  0  0  0  0  0
    3.3730   11.0200   -1.3940 C   0  0  0  0  0  0  0  0  0  0  0  0
    2.4390   12.7330    0.1840 C   0  0  0  0  0  0  0  0  0  0  0  0
    1.6920   14.0700    0.3460 C   0  0  0  0  0  0  0  0  0  0  0  0
    1.7700   14.9010   -0.9390 C   0  0  2  0  0  0  0  0  0  0  0  0
    3.2780   15.2390   -1.1980 C   0  0  0  0  0  0  0  0  0  0  0  0
    0.3202   18.6537    1.0652 H   0  0  0  0  0  0  0  0  0  0  0  0
    0.8181   19.4268   -0.4779 H   0  0  0  0  0  0  0  0  0  0  0  0
   -0.4556   18.1602   -0.4779 H   0  0  0  0  0  0  0  0  0  0  0  0
    1.8851   17.0899    0.7947 H   0  0  0  0  0  0  0  0  0  0  0  0
    3.0426   17.2514   -1.7593 H   0  0  0  0  0  0  0  0  0  0  0  0
    2.5327   18.9519   -1.3226 H   0  0  0  0  0  0  0  0  0  0  0  0
    4.5416   17.1457    0.0207 H   0  0  0  0  0  0  0  0  0  0  0  0
    4.6774   18.8758   -0.5057 H   0  0  0  0  0  0  0  0  0  0  0  0
    2.8484   17.8283    1.3796 H   0  0  0  0  0  0  0  0  0  0  0  0
    6.7051   19.1235    2.9695 H   0  0  0  0  0  0  0  0  0  0  0  0
    6.4088   18.2153    1.4482 H   0  0  0  0  0  0  0  0  0  0  0  0
    6.3512   20.0107    1.4482 H   0  0  0  0  0  0  0  0  0  0  0  0
    5.2028   19.1127    4.4082 H   0  0  0  0  0  0  0  0  0  0  0  0
    3.6131   19.8532    4.0195 H   0  0  0  0  0  0  0  0  0  0  0  0
    3.7956   18.0662    4.0195 H   0  0  0  0  0  0  0  0  0  0  0  0
    0.0250   16.1034   -0.4070 H   0  0  0  0  0  0  0  0  0  0  0  0
   -0.2164   16.8516   -2.6924 H   0  0  0  0  0  0  0  0  0  0  0  0
    1.5008   17.2923   -2.8105 H   0  0  0  0  0  0  0  0  0  0  0  0
    0.3003   14.9655   -3.9573 H   0  0  0  0  0  0  0  0  0  0  0  0
    2.0369   15.1856   -3.7623 H   0  0  0  0  0  0  0  0  0  0  0  0
   -0.6402   13.7587   -0.7693 H   0  0  0  0  0  0  0  0  0  0  0  0
   -1.0550   14.5916   -2.3059 H   0  0  0  0  0  0  0  0  0  0  0  0
   -0.7021   12.8303   -2.3059 H   0  0  0  0  0  0  0  0  0  0  0  0
    2.8638   13.1864   -2.6705 H   0  0  0  0  0  0  0  0  0  0  0  0
    0.9480   12.6584   -4.3100 H   0  0  0  0  0  0  0  0  0  0  0  0
    2.2652   11.4227   -3.9526 H   0  0  0  0  0  0  0  0  0  0  0  0
   -0.1952   10.4933   -4.0987 H   0  0  0  0  0  0  0  0  0  0  0  0
    0.1937   11.6118   -0.2380 H   0  0  0  0  0  0  0  0  0  0  0  0
    1.9472    9.0898   -0.4859 H   0  0  0  0  0  0  0  0  0  0  0  0
    1.6927   10.1009    1.0052 H   0  0  0  0  0  0  0  0  0  0  0  0
    0.3641    8.0145    1.0515 H   0  0  0  0  0  0  0  0  0  0  0  0
   -0.6601    9.5030    1.0458 H   0  0  0  0  0  0  0  0  0  0  0  0
   -1.6292    7.8946   -0.4492 H   0  0  0  0  0  0  0  0  0  0  0  0
    0.7120    7.0240   -0.8160 H   0  0  0  0  0  0  0  0  0  0  0  0
   -2.1855   10.2941   -0.0093 H   0  0  0  0  0  0  0  0  0  0  0  0
   -2.1813   11.4003   -1.4245 H   0  0  0  0  0  0  0  0  0  0  0  0
   -3.2355    9.9459   -1.4245 H   0  0  0  0  0  0  0  0  0  0  0  0
   -2.4449    8.0986   -2.7371 H   0  0  0  0  0  0  0  0  0  0  0  0
   -2.2332    9.6477   -3.6214 H   0  0  0  0  0  0  0  0  0  0  0  0
   -0.9161    8.4263   -3.6214 H   0  0  0  0  0  0  0  0  0  0  0  0
    3.8303   10.7067   -0.4439 H   0  0  0  0  0  0  0  0  0  0  0  0
    3.0824   10.1304   -1.9720 H   0  0  0  0  0  0  0  0  0  0  0  0
    4.0977   11.6122   -1.9720 H   0  0  0  0  0  0  0  0  0  0  0  0
    2.2035   12.1120    1.0609 H   0  0  0  0  0  0  0  0  0  0  0  0
    3.4998   13.0065    0.0839 H   0  0  0  0  0  0  0  0  0  0  0  0
    0.6365   13.8665    0.5794 H   0  0  0  0  0  0  0  0  0  0  0  0
    2.1637   14.6389    1.1608 H   0  0  0  0  0  0  0  0  0  0  0  0
    3.7981   15.3556   -0.2358 H   0  0  0  0  0  0  0  0  0  0  0  0
    3.7437   14.4229   -1.7700 H   0  0  0  0  0  0  0  0  0  0  0  0
    3.3508   16.1757   -1.7700 H   0  0  0  0  0  0  0  0  0  0  0  0
  1  2  1  0
  2  3  1  0
  3  4  1  0
  4  5  1  0
  5  6  1  0
  6  7  1  0
  7  8  1  0
  7  9  1  0
  2 10  1  0
 10 11  1  0
 11 12  1  0
 12 13  1  0
 13 14  1  1
 13 15  1  0
 15 16  1  0
 16 17  1  0
 17 18  2  0
 18 19  1  0
 19 20  1  0
 20 21  1  0
 21 22  1  0
 22 23  1  0
 22 24  1  0
 24 25  1  0
 24 26  1  0
 19 27  1  0
 27 28  1  6
 27 29  1  0
 29 30  1  0
 30 31  1  0
 31 32  1  6
  7  5  1  0
 31 10  1  0
 31 13  1  0
 27 15  1  0
 24 18  1  0
  1 33  1  0
  1 34  1  0
  1 35  1  0
  2 36  1  1
  3 37  1  0
  3 38  1  0
  4 39  1  0
  4 40  1  0
  5 41  1  1
  8 42  1  0
  8 43  1  0
  8 44  1  0
  9 45  1  0
  9 46  1  0
  9 47  1  0
 10 48  1  1
 11 49  1  0
 11 50  1  0
 12 51  1  0
 12 52  1  0
 14 53  1  0
 14 54  1  0
 14 55  1  0
 15 56  1  6
 16 57  1  0
 16 58  1  0
 17 59  1  0
 19 60  1  1
 20 61  1  0
 20 62  1  0
 21 63  1  0
 21 64  1  0
 22 65  1  1
 23 66  1  0
 25 67  1  0
 25 68  1  0
 25 69  1  0
 26 70  1  0
 26 71  1  0
 26 72  1  0
 28 73  1  0
 28 74  1  0
 28 75  1  0
 29 76  1  0
 29 77  1  0
 30 78  1  0
 30 79  1  0
 32 80  1  0
 32 81  1  0
 32 82  1  0
M  END
>  <meeko>  (3) 
{"is_sidechain": [false], "intermolecular_energy": 2.731, "internal_energy": -0.839}

$$$$
EPH_relaxed_0001_pdb2pqr_Repair_129_r2_0001_out
     RDKit          3D

 82 86  0  0  0  0  0  0  0  0999 V2000
    3.3630   11.3330   -5.3300 C   0  0  0  0  0  0  0  0  0  0  0  0
    1.8420   11.2020   -5.2150 C   0  0  2  0  0  0  0  0  0  0  0  0
    1.1680   11.0170   -6.5890 C   0  0  0  0  0  0  0  0  0  0  0  0
    1.7090   11.9560   -7.6710 C   0  0  0  0  0  0  0  0  0  0  0  0
    0.7170   13.0210   -8.0270 C   0  0  2  0  0  0  0  0  0  0  0  0
    0.4870   13.1790   -9.4330 O   0  0  0  0  0  0  0  0  0  0  0  0
    1.0860   14.2980   -8.7600 C   0  0  0  0  0  0  0  0  0  0  0  0
    2.4950   14.5770   -9.1800 C   0  0  0  0  0  0  0  0  0  0  0  0
    0.1800   15.4820   -8.6350 C   0  0  0  0  0  0  0  0  0  0  0  0
    1.2670   12.4270   -4.5140 C   0  0  1  0  0  0  0  0  0  0  0  0
   -0.2790   12.3740   -4.3890 C   0  0  0  0  0  0  0  0  0  0  0  0
   -0.6430   13.0460   -3.0400 C   0  0  0  0  0  0  0  0  0  0  0  0
    0.6580   13.7530   -2.5940 C   0  0  1  0  0  0  0  0  0  0  0  0
    0.6830   15.0910   -3.3970 C   0  0  0  0  0  0  0  0  0  0  0  0
    0.8190   13.9990   -1.0580 C   0  0  2  0  0  0  0  0  0  0  0  0
   -0.2410   14.9220   -0.4310 C   0  0  0  0  0  0  0  0  0  0  0  0
    0.1070   16.3740   -0.4150 C   0  0  0  0  0  0  0  0  0  0  0  0
    1.3340   16.8860   -0.6220 C   0  0  0  0  0  0  0  0  0  0  0  0
    2.5500   15.9690   -0.8080 C   0  0  1  0  0  0  0  0  0  0  0  0
    3.7240   16.4820    0.0670 C   0  0  0  0  0  0  0  0  0  0  0  0
    4.0530   17.9480   -0.1970 C   0  0  0  0  0  0  0  0  0  0  0  0
    2.8360   18.8350    0.0550 C   0  0  2  0  0  0  0  0  0  0  0  0
    2.5260   18.8070    1.4510 O   0  0  0  0  0  0  0  0  0  0  0  0
    1.5870   18.4070   -0.7660 C   0  0  0  0  0  0  0  0  0  0  0  0
    1.8170   18.7220   -2.2650 C   0  0  0  0  0  0  0  0  0  0  0  0
    0.3940   19.2920   -0.3150 C   0  0  0  0  0  0  0  0  0  0  0  0
    2.2810   14.4150   -0.6170 C   0  0  1  0  0  0  0  0  0  0  0  0
    2.4180   14.0310    0.8880 C   0  0  0  0  0  0  0  0  0  0  0  0
    3.3900   13.6030   -1.3850 C   0  0  0  0  0  0  0  0  0  0  0  0
    3.1190   13.2880   -2.8690 C   0  0  0  0  0  0  0  0  0  0  0  0
    1.7210   12.6910   -3.0560 C   0  0  2  0  0  0  0  0  0  0  0  0
    1.6730   11.3330   -2.2770 C   0  0  0  0  0  0  0  0  0  0  0  0
    3.8049   11.3711   -4.3234 H   0  0  0  0  0  0  0  0  0  0  0  0
    3.7655   10.4662   -5.8746 H   0  0  0  0  0  0  0  0  0  0  0  0
    3.6114   12.2559   -5.8746 H   0  0  0  0  0  0  0  0  0  0  0  0
    1.6322   10.3001   -4.6213 H   0  0  0  0  0  0  0  0  0  0  0  0
    1.3282    9.9795   -6.9176 H   0  0  0  0  0  0  0  0  0  0  0  0
    0.1022   11.2561   -6.4592 H   0  0  0  0  0  0  0  0  0  0  0  0
    2.6280   12.4341   -7.3011 H   0  0  0  0  0  0  0  0  0  0  0  0
    1.9105   11.3597   -8.5731 H   0  0  0  0  0  0  0  0  0  0  0  0
    0.1539   12.8390   -7.0998 H   0  0  0  0  0  0  0  0  0  0  0  0
    3.1257   14.7019   -8.2875 H   0  0  0  0  0  0  0  0  0  0  0  0
    2.8719   13.7361   -9.7806 H   0  0  0  0  0  0  0  0  0  0  0  0
    2.5230   15.4981   -9.7806 H   0  0  0  0  0  0  0  0  0  0  0  0
    0.0106   15.7034   -7.5709 H   0  0  0  0  0  0  0  0  0  0  0  0
    0.6449   16.3524   -9.1211 H   0  0  0  0  0  0  0  0  0  0  0  0
   -0.7817   15.2608   -9.1211 H   0  0  0  0  0  0  0  0  0  0  0  0
    1.6520   13.2156   -5.1772 H   0  0  0  0  0  0  0  0  0  0  0  0
   -0.7452   12.9204   -5.2221 H   0  0  0  0  0  0  0  0  0  0  0  0
   -0.6423   11.3363   -4.4236 H   0  0  0  0  0  0  0  0  0  0  0  0
   -1.4547   13.7758   -3.1761 H   0  0  0  0  0  0  0  0  0  0  0  0
   -1.0002   12.3200   -2.2948 H   0  0  0  0  0  0  0  0  0  0  0  0
    0.6988   15.9389   -2.6964 H   0  0  0  0  0  0  0  0  0  0  0  0
    1.5819   15.1218   -4.0303 H   0  0  0  0  0  0  0  0  0  0  0  0
   -0.2141   15.1554   -4.0303 H   0  0  0  0  0  0  0  0  0  0  0  0
    0.6319   12.9996   -0.6383 H   0  0  0  0  0  0  0  0  0  0  0  0
   -1.1750   14.8025   -0.9997 H   0  0  0  0  0  0  0  0  0  0  0  0
   -0.3249   14.6175    0.6227 H   0  0  0  0  0  0  0  0  0  0  0  0
   -0.7086   17.0851   -0.2173 H   0  0  0  0  0  0  0  0  0  0  0  0
    2.8210   16.0349   -1.8720 H   0  0  0  0  0  0  0  0  0  0  0  0
    3.4507   16.3671    1.1263 H   0  0  0  0  0  0  0  0  0  0  0  0
    4.6145   15.8887   -0.1879 H   0  0  0  0  0  0  0  0  0  0  0  0
    4.8698   18.2594    0.4708 H   0  0  0  0  0  0  0  0  0  0  0  0
    4.3539   18.0560   -1.2495 H   0  0  0  0  0  0  0  0  0  0  0  0
    3.0951   19.8523   -0.2736 H   0  0  0  0  0  0  0  0  0  0  0  0
    1.5830   18.5890    1.5390 H   0  0  0  0  0  0  0  0  0  0  0  0
    2.4633   19.6072   -2.3587 H   0  0  0  0  0  0  0  0  0  0  0  0
    2.3009   17.8616   -2.7504 H   0  0  0  0  0  0  0  0  0  0  0  0
    0.8502   18.9209   -2.7504 H   0  0  0  0  0  0  0  0  0  0  0  0
    0.3542   19.3215    0.7839 H   0  0  0  0  0  0  0  0  0  0  0  0
    0.5263   20.3121   -0.7047 H   0  0  0  0  0  0  0  0  0  0  0  0
   -0.5439   18.8695   -0.7047 H   0  0  0  0  0  0  0  0  0  0  0  0
    2.1139   14.8835    1.5131 H   0  0  0  0  0  0  0  0  0  0  0  0
    1.7725   13.1675    1.1063 H   0  0  0  0  0  0  0  0  0  0  0  0
    3.4643   13.7711    1.1063 H   0  0  0  0  0  0  0  0  0  0  0  0
    4.3231   14.1832   -1.3331 H   0  0  0  0  0  0  0  0  0  0  0  0
    3.4273   12.6237   -0.8853 H   0  0  0  0  0  0  0  0  0  0  0  0
    3.1949   14.2166   -3.4537 H   0  0  0  0  0  0  0  0  0  0  0  0
    3.8627   12.5544   -3.2134 H   0  0  0  0  0  0  0  0  0  0  0  0
    1.6800   11.5306   -1.1949 H   0  0  0  0  0  0  0  0  0  0  0  0
    0.7551   10.7891   -2.5445 H   0  0  0  0  0  0  0  0  0  0  0  0
    2.5502   10.7256   -2.5445 H   0  0  0  0  0  0  0  0  0  0  0  0
  1  2  1  0
  2  3  1  0
  3  4  1  0
  4  5  1  0
  5  6  1  0
  6  7  1  0
  7  8  1  0
  7  9  1  0
  2 10  1  0
 10 11  1  0
 11 12  1  0
 12 13  1  0
 13 14  1  6
 13 15  1  0
 15 16  1  0
 16 17  1  0
 17 18  2  0
 18 19  1  0
 19 20  1  0
 20 21  1  0
 21 22  1  0
 22 23  1  0
 22 24  1  0
 24 25  1  0
 24 26  1  0
 19 27  1  0
 27 28  1  1
 27 29  1  0
 29 30  1  0
 30 31  1  0
 31 32  1  1
  7  5  1  0
 31 10  1  0
 31 13  1  0
 27 15  1  0
 24 18  1  0
  1 33  1  0
  1 34  1  0
  1 35  1  0
  2 36  1  1
  3 37  1  0
  3 38  1  0
  4 39  1  0
  4 40  1  0
  5 41  1  1
  8 42  1  0
  8 43  1  0
  8 44  1  0
  9 45  1  0
  9 46  1  0
  9 47  1  0
 10 48  1  6
 11 49  1  0
 11 50  1  0
 12 51  1  0
 12 52  1  0
 14 53  1  0
 14 54  1  0
 14 55  1  0
 15 56  1  1
 16 57  1  0
 16 58  1  0
 17 59  1  0
 19 60  1  6
 20 61  1  0
 20 62  1  0
 21 63  1  0
 21 64  1  0
 22 65  1  6
 23 66  1  0
 25 67  1  0
 25 68  1  0
 25 69  1  0
 26 70  1  0
 26 71  1  0
 26 72  1  0
 28 73  1  0
 28 74  1  0
 28 75  1  0
 29 76  1  0
 29 77  1  0
 30 78  1  0
 30 79  1  0
 32 80  1  0
 32 81  1  0
 32 82  1  0
M  END
>  <meeko>  (4) 
{"is_sidechain": [false], "intermolecular_energy": 2.731, "internal_energy": -0.839}

$$$$
EPH_relaxed_0001_pdb2pqr_Repair_129_r2_0001_out
     RDKit          3D

 82 86  0  0  0  0  0  0  0  0999 V2000
    2.2990   18.0610   -2.7230 C   0  0  0  0  0  0  0  0  0  0  0  0
    1.0230   17.6640   -1.9760 C   0  0  2  0  0  0  0  0  0  0  0  0
    1.2060   17.7140   -0.4460 C   0  0  0  0  0  0  0  0  0  0  0  0
    1.2550   19.1350    0.1220 C   0  0  0  0  0  0  0  0  0  0  0  0
   -0.0280   19.8720   -0.1170 C   0  0  2  0  0  0  0  0  0  0  0  0
   -0.7640   20.1940    1.0700 O   0  0  0  0  0  0  0  0  0  0  0  0
   -1.3970   19.2810    0.1610 C   0  0  0  0  0  0  0  0  0  0  0  0
   -1.5530   17.8940    0.7010 C   0  0  0  0  0  0  0  0  0  0  0  0
   -2.5840   19.8590   -0.5460 C   0  0  0  0  0  0  0  0  0  0  0  0
    0.5830   16.2690   -2.4030 C   0  0  1  0  0  0  0  0  0  0  0  0
    0.6490   16.0650   -3.9400 C   0  0  0  0  0  0  0  0  0  0  0  0
    1.0630   14.5910   -4.1790 C   0  0  0  0  0  0  0  0  0  0  0  0
    0.8990   13.9110   -2.7990 C   0  0  1  0  0  0  0  0  0  0  0  0
   -0.6260   13.5960   -2.6860 C   0  0  0  0  0  0  0  0  0  0  0  0
    1.7710   12.6380   -2.5480 C   0  0  2  0  0  0  0  0  0  0  0  0
    1.4840   11.4540   -3.4880 C   0  0  0  0  0  0  0  0  0  0  0  0
    0.4460   10.4950   -3.0070 C   0  0  0  0  0  0  0  0  0  0  0  0
   -0.0240   10.4180   -1.7480 C   0  0  0  0  0  0  0  0  0  0  0  0
    0.5660   11.2900   -0.6320 C   0  0  1  0  0  0  0  0  0  0  0  0
    0.8310   10.4160    0.6220 C   0  0  0  0  0  0  0  0  0  0  0  0
   -0.4090    9.6500    1.0740 C   0  0  0  0  0  0  0  0  0  0  0  0
   -0.9310    8.7510   -0.0430 C   0  0  2  0  0  0  0  0  0  0  0  0
    0.0290    7.7190   -0.2910 O   0  0  0  0  0  0  0  0  0  0  0  0
   -1.2250    9.5190   -1.3620 C   0  0  0  0  0  0  0  0  0  0  0  0
   -2.4670   10.4240   -1.1720 C   0  0  0  0  0  0  0  0  0  0  0  0
   -1.6090    8.4770   -2.4470 C   0  0  0  0  0  0  0  0  0  0  0  0
    1.8220   12.1760   -1.0350 C   0  0  1  0  0  0  0  0  0  0  0  0
    3.1330   11.3480   -0.8670 C   0  0  0  0  0  0  0  0  0  0  0  0
    1.9340   13.3920   -0.0410 C   0  0  0  0  0  0  0  0  0  0  0  0
    1.1430   14.6630   -0.4070 C   0  0  0  0  0  0  0  0  0  0  0  0
    1.4000   15.0690   -1.8610 C   0  0  2  0  0  0  0  0  0  0  0  0
    2.9220   15.4130   -2.0000 C   0  0  0  0  0  0  0  0  0  0  0  0
    3.0878   18.3064   -1.9967 H   0  0  0  0  0  0  0  0  0  0  0  0
    2.6298   17.2233   -3.3545 H   0  0  0  0  0  0  0  0  0  0  0  0
    2.0962   18.9385   -3.3545 H   0  0  0  0  0  0  0  0  0  0  0  0
    0.2448   18.3956   -2.2390 H   0  0  0  0  0  0  0  0  0  0  0  0
    0.3647   17.1818    0.0219 H   0  0  0  0  0  0  0  0  0  0  0  0
    2.1757   17.2450   -0.2228 H   0  0  0  0  0  0  0  0  0  0  0  0
    1.4380   19.0798    1.2053 H   0  0  0  0  0  0  0  0  0  0  0  0
    2.0636   19.6801   -0.3870 H   0  0  0  0  0  0  0  0  0  0  0  0
    0.3955   20.3686   -1.0025 H   0  0  0  0  0  0  0  0  0  0  0  0
   -1.5494   17.9260    1.8005 H   0  0  0  0  0  0  0  0  0  0  0  0
   -2.5047   17.4686    0.3497 H   0  0  0  0  0  0  0  0  0  0  0  0
   -0.7196   17.2679    0.3497 H   0  0  0  0  0  0  0  0  0  0  0  0
   -3.3148   20.2148    0.1952 H   0  0  0  0  0  0  0  0  0  0  0  0
   -2.2613   20.7008   -1.1762 H   0  0  0  0  0  0  0  0  0  0  0  0
   -3.0477   19.0858   -1.1762 H   0  0  0  0  0  0  0  0  0  0  0  0
   -0.4312   16.2576   -1.9772 H   0  0  0  0  0  0  0  0  0  0  0  0
   -0.3355   16.2595   -4.3904 H   0  0  0  0  0  0  0  0  0  0  0  0
    1.3704   16.7569   -4.3992 H   0  0  0  0  0  0  0  0  0  0  0  0
    0.4064   14.1193   -4.9249 H   0  0  0  0  0  0  0  0  0  0  0  0
    2.0882   14.5034   -4.5680 H   0  0  0  0  0  0  0  0  0  0  0  0
   -0.9106   13.5372   -1.6251 H   0  0  0  0  0  0  0  0  0  0  0  0
   -1.2026   14.3940   -3.1766 H   0  0  0  0  0  0  0  0  0  0  0  0
   -0.8392   12.6349   -3.1766 H   0  0  0  0  0  0  0  0  0  0  0  0
    2.7804   12.9882   -2.8095 H   0  0  0  0  0  0  0  0  0  0  0  0
    1.1498   11.8603   -4.4541 H   0  0  0  0  0  0  0  0  0  0  0  0
    2.4212   10.8816   -3.5513 H   0  0  0  0  0  0  0  0  0  0  0  0
    0.0301    9.7919   -3.7436 H   0  0  0  0  0  0  0  0  0  0  0  0
   -0.1966   12.0492   -0.4037 H   0  0  0  0  0  0  0  0  0  0  0  0
    1.6257    9.6929    0.3863 H   0  0  0  0  0  0  0  0  0  0  0  0
    1.1253   11.0882    1.4414 H   0  0  0  0  0  0  0  0  0  0  0  0
   -0.1514    9.0295    1.9450 H   0  0  0  0  0  0  0  0  0  0  0  0
   -1.1934   10.3749    1.3372 H   0  0  0  0  0  0  0  0  0  0  0  0
   -1.8895    8.3296    0.2943 H   0  0  0  0  0  0  0  0  0  0  0  0
   -0.4040    6.8660   -0.1170 H   0  0  0  0  0  0  0  0  0  0  0  0
   -2.6583   10.5634   -0.0978 H   0  0  0  0  0  0  0  0  0  0  0  0
   -2.2836   11.4017   -1.6416 H   0  0  0  0  0  0  0  0  0  0  0  0
   -3.3414    9.9499   -1.6416 H   0  0  0  0  0  0  0  0  0  0  0  0
   -1.9503    7.5509   -1.9614 H   0  0  0  0  0  0  0  0  0  0  0  0
   -2.4171    8.8815   -3.0741 H   0  0  0  0  0  0  0  0  0  0  0  0
   -0.7316    8.2604   -3.0741 H   0  0  0  0  0  0  0  0  0  0  0  0
    3.3468   11.2130    0.2036 H   0  0  0  0  0  0  0  0  0  0  0  0
    3.0088   10.3641   -1.3430 H   0  0  0  0  0  0  0  0  0  0  0  0
    3.9680   11.8829   -1.3430 H   0  0  0  0  0  0  0  0  0  0  0  0
    1.5798   13.0513    0.9431 H   0  0  0  0  0  0  0  0  0  0  0  0
    2.9918   13.6923   -0.0712 H   0  0  0  0  0  0  0  0  0  0  0  0
    0.0686   14.4695   -0.2720 H   0  0  0  0  0  0  0  0  0  0  0  0
    1.4723   15.4821    0.2493 H   0  0  0  0  0  0  0  0  0  0  0  0
    3.3680   15.5138   -0.9995 H   0  0  0  0  0  0  0  0  0  0  0  0
    3.4314   14.6073   -2.5490 H   0  0  0  0  0  0  0  0  0  0  0  0
    3.0354   16.3594   -2.5490 H   0  0  0  0  0  0  0  0  0  0  0  0
  1  2  1  0
  2  3  1  0
  3  4  1  0
  4  5  1  0
  5  6  1  0
  6  7  1  0
  7  8  1  0
  7  9  1  0
  2 10  1  0
 10 11  1  0
 11 12  1  0
 12 13  1  0
 13 14  1  1
 13 15  1  0
 15 16  1  0
 16 17  1  0
 17 18  2  0
 18 19  1  0
 19 20  1  0
 20 21  1  0
 21 22  1  0
 22 23  1  0
 22 24  1  0
 24 25  1  0
 24 26  1  0
 19 27  1  0
 27 28  1  6
 27 29  1  0
 29 30  1  0
 30 31  1  0
 31 32  1  1
  7  5  1  0
 31 10  1  0
 31 13  1  0
 27 15  1  0
 24 18  1  0
  1 33  1  0
  1 34  1  0
  1 35  1  0
  2 36  1  1
  3 37  1  0
  3 38  1  0
  4 39  1  0
  4 40  1  0
  5 41  1  6
  8 42  1  0
  8 43  1  0
  8 44  1  0
  9 45  1  0
  9 46  1  0
  9 47  1  0
 10 48  1  1
 11 49  1  0
 11 50  1  0
 12 51  1  0
 12 52  1  0
 14 53  1  0
 14 54  1  0
 14 55  1  0
 15 56  1  6
 16 57  1  0
 16 58  1  0
 17 59  1  0
 19 60  1  1
 20 61  1  0
 20 62  1  0
 21 63  1  0
 21 64  1  0
 22 65  1  1
 23 66  1  0
 25 67  1  0
 25 68  1  0
 25 69  1  0
 26 70  1  0
 26 71  1  0
 26 72  1  0
 28 73  1  0
 28 74  1  0
 28 75  1  0
 29 76  1  0
 29 77  1  0
 30 78  1  0
 30 79  1  0
 32 80  1  0
 32 81  1  0
 32 82  1  0
M  END
>  <meeko>  (5) 
{"is_sidechain": [false], "intermolecular_energy": 2.731, "internal_energy": -0.839}

$$$$
EPH_relaxed_0001_pdb2pqr_Repair_129_r2_0001_out
     RDKit          3D

 82 86  0  0  0  0  0  0  0  0999 V2000
   -0.2520   14.9360   -7.5740 C   0  0  0  0  0  0  0  0  0  0  0  0
    0.6570   13.8140   -8.0840 C   0  0  2  0  0  0  0  0  0  0  0  0
    0.1490   13.2130   -9.4100 C   0  0  0  0  0  0  0  0  0  0  0  0
    0.8910   13.7310  -10.6450 C   0  0  0  0  0  0  0  0  0  0  0  0
    1.0450   15.2210  -10.6140 C   0  0  2  0  0  0  0  0  0  0  0  0
    2.1460   15.7250  -11.3820 O   0  0  0  0  0  0  0  0  0  0  0  0
    2.2180   15.9280   -9.9610 C   0  0  0  0  0  0  0  0  0  0  0  0
    3.3160   15.1610   -9.2930 C   0  0  0  0  0  0  0  0  0  0  0  0
    2.0530   17.3560   -9.5470 C   0  0  0  0  0  0  0  0  0  0  0  0
    0.7760   12.7210   -7.0280 C   0  0  1  0  0  0  0  0  0  0  0  0
    1.7340   11.5780   -7.4570 C   0  0  0  0  0  0  0  0  0  0  0  0
    2.4490   11.0870   -6.1720 C   0  0  0  0  0  0  0  0  0  0  0  0
    1.6490   11.7250   -5.0130 C   0  0  1  0  0  0  0  0  0  0  0  0
    0.4060   10.7990   -4.8260 C   0  0  0  0  0  0  0  0  0  0  0  0
    2.4230   11.9310   -3.6700 C   0  0  2  0  0  0  0  0  0  0  0  0
    2.9210   10.6390   -3.0000 C   0  0  0  0  0  0  0  0  0  0  0  0
    1.9710   10.0160   -2.0310 C   0  0  0  0  0  0  0  0  0  0  0  0
    0.8910   10.6180   -1.4970 C   0  0  0  0  0  0  0  0  0  0  0  0
    0.5900   12.0940   -1.7840 C   0  0  1  0  0  0  0  0  0  0  0  0
    0.2390   12.8190   -0.4580 C   0  0  0  0  0  0  0  0  0  0  0  0
   -0.8890   12.1300    0.3040 C   0  0  0  0  0  0  0  0  0  0  0  0
   -0.5280   10.6820    0.6220 C   0  0  2  0  0  0  0  0  0  0  0  0
    0.5590   10.6710    1.5520 O   0  0  0  0  0  0  0  0  0  0  0  0
   -0.1470    9.8550   -0.6380 C   0  0  0  0  0  0  0  0  0  0  0  0
   -1.4090    9.6110   -1.5020 C   0  0  0  0  0  0  0  0  0  0  0  0
    0.3310    8.4560   -0.1640 C   0  0  0  0  0  0  0  0  0  0  0  0
    1.6850   12.8720   -2.6340 C   0  0  1  0  0  0  0  0  0  0  0  0
    2.7860   13.4430   -1.6880 C   0  0  0  0  0  0  0  0  0  0  0  0
    1.0090   14.1130   -3.3290 C   0  0  0  0  0  0  0  0  0  0  0  0
    0.3660   13.8730   -4.7080 C   0  0  0  0  0  0  0  0  0  0  0  0
    1.3290   13.1310   -5.6400 C   0  0  2  0  0  0  0  0  0  0  0  0
    2.5790   14.0480   -5.8650 C   0  0  0  0  0  0  0  0  0  0  0  0
   -0.2522   14.9363   -6.4740 H   0  0  0  0  0  0  0  0  0  0  0  0
    0.1195   15.9042   -7.9408 H   0  0  0  0  0  0  0  0  0  0  0  0
   -1.2762   14.7734   -7.9408 H   0  0  0  0  0  0  0  0  0  0  0  0
    1.6470   14.2523   -8.2782 H   0  0  0  0  0  0  0  0  0  0  0  0
    0.2700   12.1206   -9.3650 H   0  0  0  0  0  0  0  0  0  0  0  0
   -0.9033   13.5148   -9.5173 H   0  0  0  0  0  0  0  0  0  0  0  0
    1.8891   13.2700  -10.6807 H   0  0  0  0  0  0  0  0  0  0  0  0
    0.3023   13.4654  -11.5354 H   0  0  0  0  0  0  0  0  0  0  0  0
   -0.0427   15.3549  -10.5188 H   0  0  0  0  0  0  0  0  0  0  0  0
    3.2055   15.2382   -8.2013 H   0  0  0  0  0  0  0  0  0  0  0  0
    3.2604   14.1043   -9.5934 H   0  0  0  0  0  0  0  0  0  0  0  0
    4.2891   15.5769   -9.5934 H   0  0  0  0  0  0  0  0  0  0  0  0
    2.0455   17.4209   -8.4489 H   0  0  0  0  0  0  0  0  0  0  0  0
    2.8883   17.9517   -9.9438 H   0  0  0  0  0  0  0  0  0  0  0  0
    1.1039   17.7455   -9.9438 H   0  0  0  0  0  0  0  0  0  0  0  0
   -0.2818   12.4317   -6.9415 H   0  0  0  0  0  0  0  0  0  0  0  0
    1.1623   10.7548   -7.9103 H   0  0  0  0  0  0  0  0  0  0  0  0
    2.4612   11.9315   -8.2028 H   0  0  0  0  0  0  0  0  0  0  0  0
    2.4194    9.9894   -6.1063 H   0  0  0  0  0  0  0  0  0  0  0  0
    3.5116   11.3707   -6.1514 H   0  0  0  0  0  0  0  0  0  0  0  0
    0.2137   10.6557   -3.7525 H   0  0  0  0  0  0  0  0  0  0  0  0
   -0.4723   11.2647   -5.2969 H   0  0  0  0  0  0  0  0  0  0  0  0
    0.6008    9.8242   -5.2969 H   0  0  0  0  0  0  0  0  0  0  0  0
    3.3268   12.4653   -3.9981 H   0  0  0  0  0  0  0  0  0  0  0  0
    3.1297    9.9043   -3.7916 H   0  0  0  0  0  0  0  0  0  0  0  0
    3.8093   10.9218   -2.4162 H   0  0  0  0  0  0  0  0  0  0  0  0
    2.1701    8.9776   -1.7276 H   0  0  0  0  0  0  0  0  0  0  0  0
   -0.2817   12.1017   -2.4549 H   0  0  0  0  0  0  0  0  0  0  0  0
    1.1346   12.8398    0.1804 H   0  0  0  0  0  0  0  0  0  0  0  0
   -0.1006   13.8340   -0.7119 H   0  0  0  0  0  0  0  0  0  0  0  0
   -1.0705   12.6706    1.2447 H   0  0  0  0  0  0  0  0  0  0  0  0
   -1.7920   12.1367   -0.3242 H   0  0  0  0  0  0  0  0  0  0  0  0
   -1.4219   10.2058    1.0511 H   0  0  0  0  0  0  0  0  0  0  0  0
    0.5120   11.4930    2.0680 H   0  0  0  0  0  0  0  0  0  0  0  0
   -2.2758    9.4434   -0.8458 H   0  0  0  0  0  0  0  0  0  0  0  0
   -1.5943   10.4900   -2.1369 H   0  0  0  0  0  0  0  0  0  0  0  0
   -1.2533    8.7263   -2.1369 H   0  0  0  0  0  0  0  0  0  0  0  0
    0.3415    8.4252    0.9355 H   0  0  0  0  0  0  0  0  0  0  0  0
   -0.3548    7.6854   -0.5458 H   0  0  0  0  0  0  0  0  0  0  0  0
    1.3450    8.2662   -0.5458 H   0  0  0  0  0  0  0  0  0  0  0  0
    2.4865   13.2877   -0.6410 H   0  0  0  0  0  0  0  0  0  0  0  0
    3.7375   12.9247   -1.8779 H   0  0  0  0  0  0  0  0  0  0  0  0
    2.9105   14.5193   -1.8779 H   0  0  0  0  0  0  0  0  0  0  0  0
    0.2225   14.4839   -2.6553 H   0  0  0  0  0  0  0  0  0  0  0  0
    1.8300   14.8213   -3.5141 H   0  0  0  0  0  0  0  0  0  0  0  0
   -0.5461   13.2715   -4.5800 H   0  0  0  0  0  0  0  0  0  0  0  0
    0.1244   14.8477   -5.1569 H   0  0  0  0  0  0  0  0  0  0  0  0
    2.9917   14.3507   -4.8913 H   0  0  0  0  0  0  0  0  0  0  0  0
    3.3428   13.4944   -6.4308 H   0  0  0  0  0  0  0  0  0  0  0  0
    2.2803   14.9428   -6.4308 H   0  0  0  0  0  0  0  0  0  0  0  0
  1  2  1  0
  2  3  1  0
  3  4  1  0
  4  5  1  0
  5  6  1  0
  6  7  1  0
  7  8  1  0
  7  9  1  0
  2 10  1  0
 10 11  1  0
 11 12  1  0
 12 13  1  0
 13 14  1  1
 13 15  1  0
 15 16  1  0
 16 17  1  0
 17 18  2  0
 18 19  1  0
 19 20  1  0
 20 21  1  0
 21 22  1  0
 22 23  1  0
 22 24  1  0
 24 25  1  0
 24 26  1  0
 19 27  1  0
 27 28  1  1
 27 29  1  0
 29 30  1  0
 30 31  1  0
 31 32  1  6
  7  5  1  0
 31 10  1  0
 31 13  1  0
 27 15  1  0
 24 18  1  0
  1 33  1  0
  1 34  1  0
  1 35  1  0
  2 36  1  6
  3 37  1  0
  3 38  1  0
  4 39  1  0
  4 40  1  0
  5 41  1  6
  8 42  1  0
  8 43  1  0
  8 44  1  0
  9 45  1  0
  9 46  1  0
  9 47  1  0
 10 48  1  1
 11 49  1  0
 11 50  1  0
 12 51  1  0
 12 52  1  0
 14 53  1  0
 14 54  1  0
 14 55  1  0
 15 56  1  6
 16 57  1  0
 16 58  1  0
 17 59  1  0
 19 60  1  6
 20 61  1  0
 20 62  1  0
 21 63  1  0
 21 64  1  0
 22 65  1  1
 23 66  1  0
 25 67  1  0
 25 68  1  0
 25 69  1  0
 26 70  1  0
 26 71  1  0
 26 72  1  0
 28 73  1  0
 28 74  1  0
 28 75  1  0
 29 76  1  0
 29 77  1  0
 30 78  1  0
 30 79  1  0
 32 80  1  0
 32 81  1  0
 32 82  1  0
M  END
>  <meeko>  (6) 
{"is_sidechain": [false], "intermolecular_energy": 2.731, "internal_energy": -0.839}

$$$$
EPH_relaxed_0001_pdb2pqr_Repair_129_r2_0001_out
     RDKit          3D

 82 86  0  0  0  0  0  0  0  0999 V2000
   -5.0850    5.9610   -1.8840 C   0  0  0  0  0  0  0  0  0  0  0  0
   -5.4450    7.4490   -1.8560 C   0  0  2  0  0  0  0  0  0  0  0  0
   -5.2420    8.0700   -0.4590 C   0  0  0  0  0  0  0  0  0  0  0  0
   -4.1860    9.1780   -0.4250 C   0  0  0  0  0  0  0  0  0  0  0  0
   -2.8270    8.6610   -0.7890 C   0  0  2  0  0  0  0  0  0  0  0  0
   -1.7950    8.9760    0.1550 O   0  0  0  0  0  0  0  0  0  0  0  0
   -1.6600    9.5590   -1.1510 C   0  0  0  0  0  0  0  0  0  0  0  0
   -1.7980   11.0490   -1.1690 C   0  0  0  0  0  0  0  0  0  0  0  0
   -0.5360    8.9830   -1.9560 C   0  0  0  0  0  0  0  0  0  0  0  0
   -6.8870    7.6440   -2.3080 C   0  0  1  0  0  0  0  0  0  0  0  0
   -7.1930    6.9320   -3.6530 C   0  0  0  0  0  0  0  0  0  0  0  0
   -8.6580    6.4310   -3.5700 C   0  0  0  0  0  0  0  0  0  0  0  0
   -9.2470    7.1510   -2.3350 C   0  0  1  0  0  0  0  0  0  0  0  0
   -9.6310    8.5750   -2.8450 C   0  0  0  0  0  0  0  0  0  0  0  0
  -10.4540    6.4450   -1.6340 C   0  0  2  0  0  0  0  0  0  0  0  0
  -11.7130    6.2880   -2.5040 C   0  0  0  0  0  0  0  0  0  0  0  0
  -12.6880    7.4150   -2.4230 C   0  0  0  0  0  0  0  0  0  0  0  0
  -12.7020    8.3710   -1.4750 C   0  0  0  0  0  0  0  0  0  0  0  0
  -11.7250    8.3230   -0.2930 C   0  0  1  0  0  0  0  0  0  0  0  0
  -12.4940    8.5970    1.0260 C   0  0  0  0  0  0  0  0  0  0  0  0
  -13.2900    9.8980    0.9790 C   0  0  0  0  0  0  0  0  0  0  0  0
  -14.2900    9.8850   -0.1740 C   0  0  2  0  0  0  0  0  0  0  0  0
  -15.2860    8.8920    0.0920 O   0  0  0  0  0  0  0  0  0  0  0  0
  -13.6310    9.6070   -1.5540 C   0  0  0  0  0  0  0  0  0  0  0  0
  -12.7800   10.8290   -1.9790 C   0  0  0  0  0  0  0  0  0  0  0  0
  -14.7650    9.4800   -2.6070 C   0  0  0  0  0  0  0  0  0  0  0  0
  -10.8060    7.0290   -0.2060 C   0  0  1  0  0  0  0  0  0  0  0  0
  -11.5520    5.8980    0.5660 C   0  0  0  0  0  0  0  0  0  0  0  0
   -9.5200    7.3680    0.6360 C   0  0  0  0  0  0  0  0  0  0  0  0
   -8.3200    7.9520   -0.1330 C   0  0  0  0  0  0  0  0  0  0  0  0
   -8.0030    7.1120   -1.3740 C   0  0  2  0  0  0  0  0  0  0  0  0
   -7.5920    5.6790   -0.8910 C   0  0  0  0  0  0  0  0  0  0  0  0
   -4.9943    5.5862   -0.8538 H   0  0  0  0  0  0  0  0  0  0  0  0
   -5.8740    5.4027   -2.4092 H   0  0  0  0  0  0  0  0  0  0  0  0
   -4.1281    5.8251   -2.4092 H   0  0  0  0  0  0  0  0  0  0  0  0
   -4.7652    7.9664   -2.5490 H   0  0  0  0  0  0  0  0  0  0  0  0
   -6.2006    8.4936   -0.1247 H   0  0  0  0  0  0  0  0  0  0  0  0
   -4.8852    7.2658    0.2013 H   0  0  0  0  0  0  0  0  0  0  0  0
   -4.4713    9.9642   -1.1395 H   0  0  0  0  0  0  0  0  0  0  0  0
   -4.1384    9.5746    0.5999 H   0  0  0  0  0  0  0  0  0  0  0  0
   -3.2676    7.7864   -1.2899 H   0  0  0  0  0  0  0  0  0  0  0  0
   -1.8330   11.4265   -0.1364 H   0  0  0  0  0  0  0  0  0  0  0  0
   -0.9369   11.4907   -1.6919 H   0  0  0  0  0  0  0  0  0  0  0  0
   -2.7256   11.3250   -1.6919 H   0  0  0  0  0  0  0  0  0  0  0  0
    0.2352    8.5878   -1.2785 H   0  0  0  0  0  0  0  0  0  0  0  0
   -0.9185    8.1698   -2.5904 H   0  0  0  0  0  0  0  0  0  0  0  0
   -0.0993    9.7684   -2.5904 H   0  0  0  0  0  0  0  0  0  0  0  0
   -6.9213    8.7428   -2.3470 H   0  0  0  0  0  0  0  0  0  0  0  0
   -7.0807    7.6376   -4.4894 H   0  0  0  0  0  0  0  0  0  0  0  0
   -6.4986    6.0963   -3.8247 H   0  0  0  0  0  0  0  0  0  0  0  0
   -9.2135    6.7029   -4.4796 H   0  0  0  0  0  0  0  0  0  0  0  0
   -8.7202    5.3362   -3.4836 H   0  0  0  0  0  0  0  0  0  0  0  0
   -9.8095    9.2368   -1.9847 H   0  0  0  0  0  0  0  0  0  0  0  0
   -8.8099    8.9798   -3.4549 H   0  0  0  0  0  0  0  0  0  0  0  0
  -10.5443    8.5121   -3.4549 H   0  0  0  0  0  0  0  0  0  0  0  0
  -10.0720    5.4256   -1.4761 H   0  0  0  0  0  0  0  0  0  0  0  0
  -11.3923    6.1906   -3.5517 H   0  0  0  0  0  0  0  0  0  0  0  0
  -12.2396    5.4017   -2.1204 H   0  0  0  0  0  0  0  0  0  0  0  0
  -13.4607    7.4692   -3.2040 H   0  0  0  0  0  0  0  0  0  0  0  0
  -10.9924    9.1240   -0.4709 H   0  0  0  0  0  0  0  0  0  0  0  0
  -13.1894    7.7644    1.2084 H   0  0  0  0  0  0  0  0  0  0  0  0
  -11.7518    8.6883    1.8328 H   0  0  0  0  0  0  0  0  0  0  0  0
  -13.8349   10.0209    1.9266 H   0  0  0  0  0  0  0  0  0  0  0  0
  -12.5897   10.7325    0.8266 H   0  0  0  0  0  0  0  0  0  0  0  0
  -14.7353   10.8889   -0.2361 H   0  0  0  0  0  0  0  0  0  0  0  0
  -14.9090    8.2580    0.7250 H   0  0  0  0  0  0  0  0  0  0  0  0
  -12.4158   11.3519   -1.0824 H   0  0  0  0  0  0  0  0  0  0  0  0
  -11.9228   10.4883   -2.5783 H   0  0  0  0  0  0  0  0  0  0  0  0
  -13.3969   11.5148   -2.5783 H   0  0  0  0  0  0  0  0  0  0  0  0
  -15.7317    9.3717   -2.0935 H   0  0  0  0  0  0  0  0  0  0  0  0
  -14.7833   10.3817   -3.2367 H   0  0  0  0  0  0  0  0  0  0  0  0
  -14.5834    8.5966   -3.2367 H   0  0  0  0  0  0  0  0  0  0  0  0
  -11.4447    6.0607    1.6486 H   0  0  0  0  0  0  0  0  0  0  0  0
  -12.6185    5.9123    0.2970 H   0  0  0  0  0  0  0  0  0  0  0  0
  -11.1190    4.9232    0.2970 H   0  0  0  0  0  0  0  0  0  0  0  0
   -9.8093    8.0986    1.4057 H   0  0  0  0  0  0  0  0  0  0  0  0
   -9.1687    6.4015    1.0264 H   0  0  0  0  0  0  0  0  0  0  0  0
   -8.5582    8.9795   -0.4452 H   0  0  0  0  0  0  0  0  0  0  0  0
   -7.4417    7.9447    0.5293 H   0  0  0  0  0  0  0  0  0  0  0  0
   -7.5840    5.6510    0.2086 H   0  0  0  0  0  0  0  0  0  0  0  0
   -8.3151    4.9425   -1.2713 H   0  0  0  0  0  0  0  0  0  0  0  0
   -6.5884    5.4377   -1.2713 H   0  0  0  0  0  0  0  0  0  0  0  0
  1  2  1  0
  2  3  1  0
  3  4  1  0
  4  5  1  0
  5  6  1  0
  6  7  1  0
  7  8  1  0
  7  9  1  0
  2 10  1  0
 10 11  1  0
 11 12  1  0
 12 13  1  0
 13 14  1  6
 13 15  1  0
 15 16  1  0
 16 17  1  0
 17 18  2  0
 18 19  1  0
 19 20  1  0
 20 21  1  0
 21 22  1  0
 22 23  1  0
 22 24  1  0
 24 25  1  0
 24 26  1  0
 19 27  1  0
 27 28  1  1
 27 29  1  0
 29 30  1  0
 30 31  1  0
 31 32  1  1
  7  5  1  0
 31 10  1  0
 31 13  1  0
 27 15  1  0
 24 18  1  0
  1 33  1  0
  1 34  1  0
  1 35  1  0
  2 36  1  6
  3 37  1  0
  3 38  1  0
  4 39  1  0
  4 40  1  0
  5 41  1  6
  8 42  1  0
  8 43  1  0
  8 44  1  0
  9 45  1  0
  9 46  1  0
  9 47  1  0
 10 48  1  6
 11 49  1  0
 11 50  1  0
 12 51  1  0
 12 52  1  0
 14 53  1  0
 14 54  1  0
 14 55  1  0
 15 56  1  1
 16 57  1  0
 16 58  1  0
 17 59  1  0
 19 60  1  6
 20 61  1  0
 20 62  1  0
 21 63  1  0
 21 64  1  0
 22 65  1  6
 23 66  1  0
 25 67  1  0
 25 68  1  0
 25 69  1  0
 26 70  1  0
 26 71  1  0
 26 72  1  0
 28 73  1  0
 28 74  1  0
 28 75  1  0
 29 76  1  0
 29 77  1  0
 30 78  1  0
 30 79  1  0
 32 80  1  0
 32 81  1  0
 32 82  1  0
M  END
>  <meeko>  (7) 
{"is_sidechain": [false], "intermolecular_energy": 2.731, "internal_energy": -0.839}

$$$$
EPH_relaxed_0001_pdb2pqr_Repair_129_r2_0001_out
     RDKit          3D

 82 86  0  0  0  0  0  0  0  0999 V2000
   -0.4210   12.2950   -8.7870 C   0  0  0  0  0  0  0  0  0  0  0  0
    0.6190   13.0190   -7.9280 C   0  0  2  0  0  0  0  0  0  0  0  0
    1.9440   13.2420   -8.6840 C   0  0  0  0  0  0  0  0  0  0  0  0
    1.7800   14.0080   -9.9990 C   0  0  0  0  0  0  0  0  0  0  0  0
    2.2230   15.4340   -9.8690 C   0  0  2  0  0  0  0  0  0  0  0  0
    2.4320   15.8750   -8.5210 O   0  0  0  0  0  0  0  0  0  0  0  0
    1.3700   16.5210   -9.2420 C   0  0  0  0  0  0  0  0  0  0  0  0
    0.0050   16.2280   -8.7040 C   0  0  0  0  0  0  0  0  0  0  0  0
    1.6590   17.9470   -9.5900 C   0  0  0  0  0  0  0  0  0  0  0  0
    0.8750   12.2310   -6.6480 C   0  0  1  0  0  0  0  0  0  0  0  0
    2.0030   11.1780   -6.8110 C   0  0  0  0  0  0  0  0  0  0  0  0
    2.7530   11.1130   -5.4550 C   0  0  0  0  0  0  0  0  0  0  0  0
    1.8380   11.8730   -4.4660 C   0  0  1  0  0  0  0  0  0  0  0  0
    0.7450   10.8380   -4.0550 C   0  0  0  0  0  0  0  0  0  0  0  0
    2.5400   12.4980   -3.2170 C   0  0  2  0  0  0  0  0  0  0  0  0
    3.2100   11.4870   -2.2700 C   0  0  0  0  0  0  0  0  0  0  0  0
    2.3410   10.9690   -1.1730 C   0  0  0  0  0  0  0  0  0  0  0  0
    1.1710   11.5070   -0.7810 C   0  0  0  0  0  0  0  0  0  0  0  0
    0.6580   12.8140   -1.4000 C   0  0  1  0  0  0  0  0  0  0  0  0
    0.1710   13.7640   -0.2750 C   0  0  0  0  0  0  0  0  0  0  0  0
   -0.8600   13.1080    0.6390 C   0  0  0  0  0  0  0  0  0  0  0  0
   -0.2930   11.8440    1.2810 C   0  0  2  0  0  0  0  0  0  0  0  0
    0.7610   12.2140    2.1750 O   0  0  0  0  0  0  0  0  0  0  0  0
    0.2380   10.8150    0.2440 C   0  0  0  0  0  0  0  0  0  0  0  0
   -0.9510   10.1900   -0.5260 C   0  0  0  0  0  0  0  0  0  0  0  0
    0.9090    9.6530    1.0250 C   0  0  0  0  0  0  0  0  0  0  0  0
    1.6440   13.5310   -2.4200 C   0  0  1  0  0  0  0  0  0  0  0  0
    2.6230   14.4650   -1.6460 C   0  0  0  0  0  0  0  0  0  0  0  0
    0.8070   14.4600   -3.3760 C   0  0  0  0  0  0  0  0  0  0  0  0
    0.2410   13.8130   -4.6540 C   0  0  0  0  0  0  0  0  0  0  0  0
    1.3260   13.0300   -5.4000 C   0  0  2  0  0  0  0  0  0  0  0  0
    2.4300   14.0490   -5.8450 C   0  0  0  0  0  0  0  0  0  0  0  0
   -1.1477   11.7891   -8.1343 H   0  0  0  0  0  0  0  0  0  0  0  0
   -0.9444   13.0249   -9.4220 H   0  0  0  0  0  0  0  0  0  0  0  0
    0.0818   11.5507   -9.4220 H   0  0  0  0  0  0  0  0  0  0  0  0
    0.2110   14.0098   -7.6794 H   0  0  0  0  0  0  0  0  0  0  0  0
    2.6239   13.8111   -8.0329 H   0  0  0  0  0  0  0  0  0  0  0  0
    2.3407   12.2480   -8.9380 H   0  0  0  0  0  0  0  0  0  0  0  0
    2.3843   13.5164  -10.7756 H   0  0  0  0  0  0  0  0  0  0  0  0
    0.7133   14.0035  -10.2677 H   0  0  0  0  0  0  0  0  0  0  0  0
    2.7613   15.3791  -10.8267 H   0  0  0  0  0  0  0  0  0  0  0  0
    0.0351   16.2345   -7.6044 H   0  0  0  0  0  0  0  0  0  0  0  0
   -0.7003   16.9952   -9.0560 H   0  0  0  0  0  0  0  0  0  0  0  0
   -0.3233   15.2389   -9.0560 H   0  0  0  0  0  0  0  0  0  0  0  0
    1.7777   18.5329   -8.6666 H   0  0  0  0  0  0  0  0  0  0  0  0
    2.5861   17.9999  -10.1796 H   0  0  0  0  0  0  0  0  0  0  0  0
    0.8256   18.3567  -10.1796 H   0  0  0  0  0  0  0  0  0  0  0  0
   -0.1291   11.8129   -6.4840 H   0  0  0  0  0  0  0  0  0  0  0  0
    1.5719   10.1954   -7.0530 H   0  0  0  0  0  0  0  0  0  0  0  0
    2.6863   11.4540   -7.6277 H   0  0  0  0  0  0  0  0  0  0  0  0
    2.8878   10.0691   -5.1355 H   0  0  0  0  0  0  0  0  0  0  0  0
    3.7597   11.5524   -5.5137 H   0  0  0  0  0  0  0  0  0  0  0  0
    0.6865   10.7826   -2.9580 H   0  0  0  0  0  0  0  0  0  0  0  0
   -0.2286   11.1530   -4.4587 H   0  0  0  0  0  0  0  0  0  0  0  0
    1.0065    9.8487   -4.4587 H   0  0  0  0  0  0  0  0  0  0  0  0
    3.3621   13.0711   -3.6706 H   0  0  0  0  0  0  0  0  0  0  0  0
    3.5462   10.6293   -2.8711 H   0  0  0  0  0  0  0  0  0  0  0  0
    4.0312   12.0288   -1.7779 H   0  0  0  0  0  0  0  0  0  0  0  0
    2.6859   10.0711   -0.6393 H   0  0  0  0  0  0  0  0  0  0  0  0
   -0.1888   12.5340   -2.0439 H   0  0  0  0  0  0  0  0  0  0  0  0
    1.0378   14.0664    0.3310 H   0  0  0  0  0  0  0  0  0  0  0  0
   -0.3099   14.6297   -0.7538 H   0  0  0  0  0  0  0  0  0  0  0  0
   -1.1433   13.8178    1.4302 H   0  0  0  0  0  0  0  0  0  0  0  0
   -1.7386   12.8327    0.0371 H   0  0  0  0  0  0  0  0  0  0  0  0
   -1.1154   11.3502    1.8193 H   0  0  0  0  0  0  0  0  0  0  0  0
    0.9230   13.1650    2.0620 H   0  0  0  0  0  0  0  0  0  0  0  0
   -1.6891    9.8020    0.1914 H   0  0  0  0  0  0  0  0  0  0  0  0
   -1.4222   10.9570   -1.1582 H   0  0  0  0  0  0  0  0  0  0  0  0
   -0.5864    9.3670   -1.1582 H   0  0  0  0  0  0  0  0  0  0  0  0
    0.8066    9.8304    2.1058 H   0  0  0  0  0  0  0  0  0  0  0  0
    0.4201    8.7035    0.7613 H   0  0  0  0  0  0  0  0  0  0  0  0
    1.9757    9.6018    0.7613 H   0  0  0  0  0  0  0  0  0  0  0  0
    2.4807   14.3292   -0.5637 H   0  0  0  0  0  0  0  0  0  0  0  0
    3.6596   14.2126   -1.9140 H   0  0  0  0  0  0  0  0  0  0  0  0
    2.4196   15.5123   -1.9140 H   0  0  0  0  0  0  0  0  0  0  0  0
   -0.0423   14.8531   -2.7980 H   0  0  0  0  0  0  0  0  0  0  0  0
    1.5167   15.2223   -3.7298 H   0  0  0  0  0  0  0  0  0  0  0  0
   -0.5734   13.1265   -4.3793 H   0  0  0  0  0  0  0  0  0  0  0  0
   -0.1326   14.6097   -5.3141 H   0  0  0  0  0  0  0  0  0  0  0  0
    2.9048   14.4872   -4.9547 H   0  0  0  0  0  0  0  0  0  0  0  0
    3.1893   13.5276   -6.4463 H   0  0  0  0  0  0  0  0  0  0  0  0
    1.9710   14.8476   -6.4463 H   0  0  0  0  0  0  0  0  0  0  0  0
  1  2  1  0
  2  3  1  0
  3  4  1  0
  4  5  1  0
  5  6  1  0
  6  7  1  0
  7  8  1  0
  7  9  1  0
  2 10  1  0
 10 11  1  0
 11 12  1  0
 12 13  1  0
 13 14  1  1
 13 15  1  0
 15 16  1  0
 16 17  1  0
 17 18  2  0
 18 19  1  0
 19 20  1  0
 20 21  1  0
 21 22  1  0
 22 23  1  0
 22 24  1  0
 24 25  1  0
 24 26  1  0
 19 27  1  0
 27 28  1  1
 27 29  1  0
 29 30  1  0
 30 31  1  0
 31 32  1  6
  7  5  1  0
 31 10  1  0
 31 13  1  0
 27 15  1  0
 24 18  1  0
  1 33  1  0
  1 34  1  0
  1 35  1  0
  2 36  1  1
  3 37  1  0
  3 38  1  0
  4 39  1  0
  4 40  1  0
  5 41  1  6
  8 42  1  0
  8 43  1  0
  8 44  1  0
  9 45  1  0
  9 46  1  0
  9 47  1  0
 10 48  1  1
 11 49  1  0
 11 50  1  0
 12 51  1  0
 12 52  1  0
 14 53  1  0
 14 54  1  0
 14 55  1  0
 15 56  1  6
 16 57  1  0
 16 58  1  0
 17 59  1  0
 19 60  1  6
 20 61  1  0
 20 62  1  0
 21 63  1  0
 21 64  1  0
 22 65  1  1
 23 66  1  0
 25 67  1  0
 25 68  1  0
 25 69  1  0
 26 70  1  0
 26 71  1  0
 26 72  1  0
 28 73  1  0
 28 74  1  0
 28 75  1  0
 29 76  1  0
 29 77  1  0
 30 78  1  0
 30 79  1  0
 32 80  1  0
 32 81  1  0
 32 82  1  0
M  END
>  <meeko>  (8) 
{"is_sidechain": [false], "intermolecular_energy": 2.731, "internal_energy": -0.839}

$$$$
EPH_relaxed_0001_pdb2pqr_Repair_129_r2_0001_out
     RDKit          3D

 82 86  0  0  0  0  0  0  0  0999 V2000
    2.9930   18.8940   -0.9810 C   0  0  0  0  0  0  0  0  0  0  0  0
    2.9190   17.7990    0.0860 C   0  0  2  0  0  0  0  0  0  0  0  0
    4.2130   17.7120    0.9200 C   0  0  0  0  0  0  0  0  0  0  0  0
    4.2000   18.5960    2.1710 C   0  0  0  0  0  0  0  0  0  0  0  0
    5.5780   18.7910    2.7260 C   0  0  2  0  0  0  0  0  0  0  0  0
    5.9130   17.9230    3.8160 O   0  0  0  0  0  0  0  0  0  0  0  0
    5.8510   19.3260    4.1190 C   0  0  0  0  0  0  0  0  0  0  0  0
    4.7350   19.7000    5.0440 C   0  0  0  0  0  0  0  0  0  0  0  0
    7.1860   19.9420    4.4010 C   0  0  0  0  0  0  0  0  0  0  0  0
    2.6300   16.4530   -0.5680 C   0  0  1  0  0  0  0  0  0  0  0  0
    2.0640   15.4110    0.4330 C   0  0  0  0  0  0  0  0  0  0  0  0
    1.0490   14.5410   -0.3530 C   0  0  0  0  0  0  0  0  0  0  0  0
    1.3060   14.8880   -1.8380 C   0  0  1  0  0  0  0  0  0  0  0  0
    2.5460   14.0290   -2.2410 C   0  0  0  0  0  0  0  0  0  0  0  0
    0.1080   14.6660   -2.8170 C   0  0  2  0  0  0  0  0  0  0  0  0
   -0.3740   13.2100   -2.9400 C   0  0  0  0  0  0  0  0  0  0  0  0
    0.2860   12.4080   -4.0130 C   0  0  0  0  0  0  0  0  0  0  0  0
    1.0170   12.9100   -5.0260 C   0  0  0  0  0  0  0  0  0  0  0  0
    1.1590   14.4250   -5.2210 C   0  0  1  0  0  0  0  0  0  0  0  0
    0.9290   14.7790   -6.7140 C   0  0  0  0  0  0  0  0  0  0  0  0
    1.8340   13.9840   -7.6500 C   0  0  0  0  0  0  0  0  0  0  0  0
    1.6220   12.4830   -7.4680 C   0  0  2  0  0  0  0  0  0  0  0  0
    0.3040   12.1460   -7.9100 O   0  0  0  0  0  0  0  0  0  0  0  0
    1.8170   12.0100   -6.0000 C   0  0  0  0  0  0  0  0  0  0  0  0
    3.3160   12.0960   -5.6210 C   0  0  0  0  0  0  0  0  0  0  0  0
    1.4370   10.5060   -5.9280 C   0  0  0  0  0  0  0  0  0  0  0  0
    0.3000   15.3330   -4.2390 C   0  0  1  0  0  0  0  0  0  0  0  0
   -1.1280   15.5490   -4.8260 C   0  0  0  0  0  0  0  0  0  0  0  0
    0.9620   16.7590   -4.1460 C   0  0  0  0  0  0  0  0  0  0  0  0
    2.0570   16.9480   -3.0790 C   0  0  0  0  0  0  0  0  0  0  0  0
    1.5890   16.4290   -1.7160 C   0  0  2  0  0  0  0  0  0  0  0  0
    0.3560   17.2890   -1.2740 C   0  0  0  0  0  0  0  0  0  0  0  0
    3.0595   19.8776   -0.4930 H   0  0  0  0  0  0  0  0  0  0  0  0
    3.8825   18.7351   -1.6084 H   0  0  0  0  0  0  0  0  0  0  0  0
    2.0903   18.8562   -1.6084 H   0  0  0  0  0  0  0  0  0  0  0  0
    2.1006   18.0619    0.7723 H   0  0  0  0  0  0  0  0  0  0  0  0
    4.3539   16.6674    1.2344 H   0  0  0  0  0  0  0  0  0  0  0  0
    5.0324   18.0720    0.2805 H   0  0  0  0  0  0  0  0  0  0  0  0
    3.7788   19.5779    1.9093 H   0  0  0  0  0  0  0  0  0  0  0  0
    3.5891   18.0967    2.9374 H   0  0  0  0  0  0  0  0  0  0  0  0
    5.9607   19.0808    1.7363 H   0  0  0  0  0  0  0  0  0  0  0  0
    5.0693   19.5880    6.0860 H   0  0  0  0  0  0  0  0  0  0  0  0
    4.4432   20.7450    4.8629 H   0  0  0  0  0  0  0  0  0  0  0  0
    3.8724   19.0418    4.8629 H   0  0  0  0  0  0  0  0  0  0  0  0
    7.3356   20.0110    5.4886 H   0  0  0  0  0  0  0  0  0  0  0  0
    7.9780   19.3183    3.9608 H   0  0  0  0  0  0  0  0  0  0  0  0
    7.2254   20.9493    3.9608 H   0  0  0  0  0  0  0  0  0  0  0  0
    3.6305   16.2212   -0.9620 H   0  0  0  0  0  0  0  0  0  0  0  0
    2.8770   14.7828    0.8259 H   0  0  0  0  0  0  0  0  0  0  0  0
    1.5807   15.9066    1.2879 H   0  0  0  0  0  0  0  0  0  0  0  0
    1.2284   13.4717   -0.1673 H   0  0  0  0  0  0  0  0  0  0  0  0
    0.0095   14.7383   -0.0522 H   0  0  0  0  0  0  0  0  0  0  0  0
    3.0572   13.6748   -1.3337 H   0  0  0  0  0  0  0  0  0  0  0  0
    2.2157   13.1652   -2.8366 H   0  0  0  0  0  0  0  0  0  0  0  0
    3.2386   14.6418   -2.8366 H   0  0  0  0  0  0  0  0  0  0  0  0
   -0.7075   15.2092   -2.3171 H   0  0  0  0  0  0  0  0  0  0  0  0
   -0.1894   12.7085   -1.9785 H   0  0  0  0  0  0  0  0  0  0  0  0
   -1.4386   13.2638   -3.2116 H   0  0  0  0  0  0  0  0  0  0  0  0
    0.1647   11.3155   -3.9723 H   0  0  0  0  0  0  0  0  0  0  0  0
    2.1913   14.6737   -4.9338 H   0  0  0  0  0  0  0  0  0  0  0  0
   -0.1190   14.5639   -6.9700 H   0  0  0  0  0  0  0  0  0  0  0  0
    1.1673   15.8449   -6.8449 H   0  0  0  0  0  0  0  0  0  0  0  0
    1.6043   14.2566   -8.6906 H   0  0  0  0  0  0  0  0  0  0  0  0
    2.8813   14.2224   -7.4126 H   0  0  0  0  0  0  0  0  0  0  0  0
    2.3862   11.9675   -8.0682 H   0  0  0  0  0  0  0  0  0  0  0  0
   -0.1400   12.9720   -8.1680 H   0  0  0  0  0  0  0  0  0  0  0  0
    3.4175   12.1018   -4.5257 H   0  0  0  0  0  0  0  0  0  0  0  0
    3.8491   11.2270   -6.0340 H   0  0  0  0  0  0  0  0  0  0  0  0
    3.7462   13.0203   -6.0340 H   0  0  0  0  0  0  0  0  0  0  0  0
    1.3591   10.1975   -4.8750 H   0  0  0  0  0  0  0  0  0  0  0  0
    0.4706   10.3476   -6.4290 H   0  0  0  0  0  0  0  0  0  0  0  0
    2.2122    9.9076   -6.4290 H   0  0  0  0  0  0  0  0  0  0  0  0
   -1.8500   15.6582   -4.0033 H   0  0  0  0  0  0  0  0  0  0  0  0
   -1.1365   16.4586   -5.4444 H   0  0  0  0  0  0  0  0  0  0  0  0
   -1.4051   14.6826   -5.4444 H   0  0  0  0  0  0  0  0  0  0  0  0
    1.4097   16.9826   -5.1256 H   0  0  0  0  0  0  0  0  0  0  0  0
    0.1480   17.4353   -3.8461 H   0  0  0  0  0  0  0  0  0  0  0  0
    2.9571   16.3948   -3.3851 H   0  0  0  0  0  0  0  0  0  0  0  0
    2.2775   18.0219   -2.9888 H   0  0  0  0  0  0  0  0  0  0  0  0
    0.3074   17.3229   -0.1756 H   0  0  0  0  0  0  0  0  0  0  0  0
    0.4613   18.3106   -1.6681 H   0  0  0  0  0  0  0  0  0  0  0  0
   -0.5663   16.8373   -1.6681 H   0  0  0  0  0  0  0  0  0  0  0  0
  1  2  1  0
  2  3  1  0
  3  4  1  0
  4  5  1  0
  5  6  1  0
  6  7  1  0
  7  8  1  0
  7  9  1  0
  2 10  1  0
 10 11  1  0
 11 12  1  0
 12 13  1  0
 13 14  1  6
 13 15  1  0
 15 16  1  0
 16 17  1  0
 17 18  2  0
 18 19  1  0
 19 20  1  0
 20 21  1  0
 21 22  1  0
 22 23  1  0
 22 24  1  0
 24 25  1  0
 24 26  1  0
 19 27  1  0
 27 28  1  6
 27 29  1  0
 29 30  1  0
 30 31  1  0
 31 32  1  1
  7  5  1  0
 31 10  1  0
 31 13  1  0
 27 15  1  0
 24 18  1  0
  1 33  1  0
  1 34  1  0
  1 35  1  0
  2 36  1  1
  3 37  1  0
  3 38  1  0
  4 39  1  0
  4 40  1  0
  5 41  1  6
  8 42  1  0
  8 43  1  0
  8 44  1  0
  9 45  1  0
  9 46  1  0
  9 47  1  0
 10 48  1  6
 11 49  1  0
 11 50  1  0
 12 51  1  0
 12 52  1  0
 14 53  1  0
 14 54  1  0
 14 55  1  0
 15 56  1  1
 16 57  1  0
 16 58  1  0
 17 59  1  0
 19 60  1  1
 20 61  1  0
 20 62  1  0
 21 63  1  0
 21 64  1  0
 22 65  1  6
 23 66  1  0
 25 67  1  0
 25 68  1  0
 25 69  1  0
 26 70  1  0
 26 71  1  0
 26 72  1  0
 28 73  1  0
 28 74  1  0
 28 75  1  0
 29 76  1  0
 29 77  1  0
 30 78  1  0
 30 79  1  0
 32 80  1  0
 32 81  1  0
 32 82  1  0
M  END
>  <meeko>  (9) 
{"is_sidechain": [false], "intermolecular_energy": 2.731, "internal_energy": -0.839}

$$$$
EPH_relaxed_0001_pdb2pqr_Repair_129_r2_0001_out
     RDKit          3D

 82 86  0  0  0  0  0  0  0  0999 V2000
    3.8740   18.3100    0.1290 C   0  0  0  0  0  0  0  0  0  0  0  0
    2.4570   18.8240   -0.1370 C   0  0  2  0  0  0  0  0  0  0  0  0
    1.8870   19.6050    1.0640 C   0  0  0  0  0  0  0  0  0  0  0  0
    0.4490   19.2210    1.4220 C   0  0  0  0  0  0  0  0  0  0  0  0
   -0.5490   20.0130    0.6330 C   0  0  2  0  0  0  0  0  0  0  0  0
   -1.8160   20.1940    1.2790 O   0  0  0  0  0  0  0  0  0  0  0  0
   -1.8270   19.4220    0.0670 C   0  0  0  0  0  0  0  0  0  0  0  0
   -2.1760   17.9810    0.2680 C   0  0  0  0  0  0  0  0  0  0  0  0
   -2.4880   20.1150   -1.0830 C   0  0  0  0  0  0  0  0  0  0  0  0
    1.5370   17.6590   -0.4840 C   0  0  1  0  0  0  0  0  0  0  0  0
    0.4560   18.0420   -1.5290 C   0  0  0  0  0  0  0  0  0  0  0  0
    0.2260   16.7890   -2.4140 C   0  0  0  0  0  0  0  0  0  0  0  0
    0.9250   15.6400   -1.6510 C   0  0  1  0  0  0  0  0  0  0  0  0
   -0.0960   15.2070   -0.5520 C   0  0  0  0  0  0  0  0  0  0  0  0
    1.3940   14.4230   -2.5140 C   0  0  2  0  0  0  0  0  0  0  0  0
    0.2670   13.6540   -3.2240 C   0  0  0  0  0  0  0  0  0  0  0  0
   -0.3170   12.5190   -2.4490 C   0  0  0  0  0  0  0  0  0  0  0  0
    0.2310   11.9530   -1.3580 C   0  0  0  0  0  0  0  0  0  0  0  0
    1.6140   12.3880   -0.8550 C   0  0  1  0  0  0  0  0  0  0  0  0
    2.4700   11.1330   -0.5420 C   0  0  0  0  0  0  0  0  0  0  0  0
    1.7740   10.1750    0.4200 C   0  0  0  0  0  0  0  0  0  0  0  0
    0.4290    9.7190   -0.1410 C   0  0  2  0  0  0  0  0  0  0  0  0
    0.6630    8.9170   -1.3020 O   0  0  0  0  0  0  0  0  0  0  0  0
   -0.5150   10.8990   -0.5030 C   0  0  0  0  0  0  0  0  0  0  0  0
   -1.0090   11.5870    0.7930 C   0  0  0  0  0  0  0  0  0  0  0  0
   -1.7770   10.3080   -1.1890 C   0  0  0  0  0  0  0  0  0  0  0  0
    2.3830   13.4400   -1.7650 C   0  0  1  0  0  0  0  0  0  0  0  0
    3.1920   12.6960   -2.8710 C   0  0  0  0  0  0  0  0  0  0  0  0
    3.4370   14.2080   -0.8840 C   0  0  0  0  0  0  0  0  0  0  0  0
    2.9430   15.4700   -0.1510 C   0  0  0  0  0  0  0  0  0  0  0  0
    2.1890   16.4000   -1.1080 C   0  0  2  0  0  0  0  0  0  0  0  0
    3.1970   16.8690   -2.2120 C   0  0  0  0  0  0  0  0  0  0  0  0
    4.0440   18.2483    1.2140 H   0  0  0  0  0  0  0  0  0  0  0  0
    3.9919   17.3118   -0.3179 H   0  0  0  0  0  0  0  0  0  0  0  0
    4.6044   19.0005   -0.3179 H   0  0  0  0  0  0  0  0  0  0  0  0
    2.5126   19.5198   -0.9872 H   0  0  0  0  0  0  0  0  0  0  0  0
    2.5258   19.4119    1.9384 H   0  0  0  0  0  0  0  0  0  0  0  0
    1.8744   20.6675    0.7794 H   0  0  0  0  0  0  0  0  0  0  0  0
    0.3025   18.1515    1.2107 H   0  0  0  0  0  0  0  0  0  0  0  0
    0.2919   19.4372    2.4890 H   0  0  0  0  0  0  0  0  0  0  0  0
    0.2527   20.6118    0.1761 H   0  0  0  0  0  0  0  0  0  0  0  0
   -2.2287   17.7633    1.3449 H   0  0  0  0  0  0  0  0  0  0  0  0
   -3.1508   17.7716   -0.1966 H   0  0  0  0  0  0  0  0  0  0  0  0
   -1.4050   17.3487   -0.1966 H   0  0  0  0  0  0  0  0  0  0  0  0
   -3.2000   20.8615   -0.7011 H   0  0  0  0  0  0  0  0  0  0  0  0
   -1.7250   20.6164   -1.6966 H   0  0  0  0  0  0  0  0  0  0  0  0
   -3.0248   19.3766   -1.6966 H   0  0  0  0  0  0  0  0  0  0  0  0
    1.1499   17.4248    0.5186 H   0  0  0  0  0  0  0  0  0  0  0  0
   -0.4783   18.3242   -1.0216 H   0  0  0  0  0  0  0  0  0  0  0  0
    0.7797   18.9004   -2.1359 H   0  0  0  0  0  0  0  0  0  0  0  0
   -0.8490   16.5840   -2.5252 H   0  0  0  0  0  0  0  0  0  0  0  0
    0.6242   16.9176   -3.4313 H   0  0  0  0  0  0  0  0  0  0  0  0
    0.3363   15.3903    0.4427 H   0  0  0  0  0  0  0  0  0  0  0  0
   -1.0225   15.7897   -0.6622 H   0  0  0  0  0  0  0  0  0  0  0  0
   -0.3211   14.1359   -0.6622 H   0  0  0  0  0  0  0  0  0  0  0  0
    1.9725   14.9094   -3.3132 H   0  0  0  0  0  0  0  0  0  0  0  0
   -0.5419   14.3653   -3.4468 H   0  0  0  0  0  0  0  0  0  0  0  0
    0.7210   13.2082   -4.1213 H   0  0  0  0  0  0  0  0  0  0  0  0
   -1.2765   12.1110   -2.7996 H   0  0  0  0  0  0  0  0  0  0  0  0
    1.4361   12.9577    0.0690 H   0  0  0  0  0  0  0  0  0  0  0  0
    2.6736   10.6014   -1.4832 H   0  0  0  0  0  0  0  0  0  0  0  0
    3.3984   11.4738   -0.0604 H   0  0  0  0  0  0  0  0  0  0  0  0
    2.4149    9.2951    0.5783 H   0  0  0  0  0  0  0  0  0  0  0  0
    1.5980   10.6990    1.3710 H   0  0  0  0  0  0  0  0  0  0  0  0
   -0.0785    9.1414    0.6456 H   0  0  0  0  0  0  0  0  0  0  0  0
    0.1170    8.1160   -1.2210 H   0  0  0  0  0  0  0  0  0  0  0  0
   -0.6197   11.0448    1.6673 H   0  0  0  0  0  0  0  0  0  0  0  0
   -0.6496   12.6264    0.8163 H   0  0  0  0  0  0  0  0  0  0  0  0
   -2.1087   11.5787    0.8163 H   0  0  0  0  0  0  0  0  0  0  0  0
   -2.4897    9.9742   -0.4205 H   0  0  0  0  0  0  0  0  0  0  0  0
   -2.2484   11.0790   -1.8162 H   0  0  0  0  0  0  0  0  0  0  0  0
   -1.4866    9.4522   -1.8162 H   0  0  0  0  0  0  0  0  0  0  0  0
    3.9237   12.0231   -2.4000 H   0  0  0  0  0  0  0  0  0  0  0  0
    2.5035   12.1089   -3.4966 H   0  0  0  0  0  0  0  0  0  0  0  0
    3.7195   13.4311   -3.4966 H   0  0  0  0  0  0  0  0  0  0  0  0
    3.8096   13.5060   -0.1235 H   0  0  0  0  0  0  0  0  0  0  0  0
    4.1978   14.5665   -1.5930 H   0  0  0  0  0  0  0  0  0  0  0  0
    2.2695   15.1713    0.6658 H   0  0  0  0  0  0  0  0  0  0  0  0
    3.8155   16.0087    0.2471 H   0  0  0  0  0  0  0  0  0  0  0  0
    4.0954   17.2870   -1.7345 H   0  0  0  0  0  0  0  0  0  0  0  0
    3.4805   16.0103   -2.8383 H   0  0  0  0  0  0  0  0  0  0  0  0
    2.7227   17.6389   -2.8383 H   0  0  0  0  0  0  0  0  0  0  0  0
  1  2  1  0
  2  3  1  0
  3  4  1  0
  4  5  1  0
  5  6  1  0
  6  7  1  0
  7  8  1  0
  7  9  1  0
  2 10  1  0
 10 11  1  0
 11 12  1  0
 12 13  1  0
 13 14  1  1
 13 15  1  0
 15 16  1  0
 16 17  1  0
 17 18  2  0
 18 19  1  0
 19 20  1  0
 20 21  1  0
 21 22  1  0
 22 23  1  0
 22 24  1  0
 24 25  1  0
 24 26  1  0
 19 27  1  0
 27 28  1  6
 27 29  1  0
 29 30  1  0
 30 31  1  0
 31 32  1  6
  7  5  1  0
 31 10  1  0
 31 13  1  0
 27 15  1  0
 24 18  1  0
  1 33  1  0
  1 34  1  0
  1 35  1  0
  2 36  1  6
  3 37  1  0
  3 38  1  0
  4 39  1  0
  4 40  1  0
  5 41  1  6
  8 42  1  0
  8 43  1  0
  8 44  1  0
  9 45  1  0
  9 46  1  0
  9 47  1  0
 10 48  1  1
 11 49  1  0
 11 50  1  0
 12 51  1  0
 12 52  1  0
 14 53  1  0
 14 54  1  0
 14 55  1  0
 15 56  1  6
 16 57  1  0
 16 58  1  0
 17 59  1  0
 19 60  1  1
 20 61  1  0
 20 62  1  0
 21 63  1  0
 21 64  1  0
 22 65  1  1
 23 66  1  0
 25 67  1  0
 25 68  1  0
 25 69  1  0
 26 70  1  0
 26 71  1  0
 26 72  1  0
 28 73  1  0
 28 74  1  0
 28 75  1  0
 29 76  1  0
 29 77  1  0
 30 78  1  0
 30 79  1  0
 32 80  1  0
 32 81  1  0
 32 82  1  0
M  END
>  <meeko>  (10) 
{"is_sidechain": [false], "intermolecular_energy": 2.731, "internal_energy": -0.839}

$$$$
EPH_relaxed_0001_pdb2pqr_Repair_129_r2_0001_out
     RDKit          3D

 82 86  0  0  0  0  0  0  0  0999 V2000
    0.4200    8.8780   -2.3520 C   0  0  0  0  0  0  0  0  0  0  0  0
    1.1420   10.0190   -3.0740 C   0  0  2  0  0  0  0  0  0  0  0  0
    2.6510   10.0450   -2.7550 C   0  0  0  0  0  0  0  0  0  0  0  0
    3.4870   10.7940   -3.7970 C   0  0  0  0  0  0  0  0  0  0  0  0
    4.9070   10.9650   -3.3490 C   0  0  2  0  0  0  0  0  0  0  0  0
    5.5830   12.0920   -3.9220 O   0  0  0  0  0  0  0  0  0  0  0  0
    6.1010   10.7970   -4.2690 C   0  0  0  0  0  0  0  0  0  0  0  0
    5.9290   10.4410   -5.7130 C   0  0  0  0  0  0  0  0  0  0  0  0
    7.4360   10.4990   -3.6620 C   0  0  0  0  0  0  0  0  0  0  0  0
    0.5080   11.3540   -2.7000 C   0  0  1  0  0  0  0  0  0  0  0  0
   -0.8670   11.1870   -2.0000 C   0  0  0  0  0  0  0  0  0  0  0  0
   -0.9760   12.3230   -0.9510 C   0  0  0  0  0  0  0  0  0  0  0  0
    0.1750   13.2930   -1.3060 C   0  0  1  0  0  0  0  0  0  0  0  0
   -0.3760   14.1560   -2.4840 C   0  0  0  0  0  0  0  0  0  0  0  0
    0.7120   14.1850   -0.1390 C   0  0  2  0  0  0  0  0  0  0  0  0
   -0.3140   15.1620    0.4600 C   0  0  0  0  0  0  0  0  0  0  0  0
   -0.3560   16.5120   -0.1760 C   0  0  0  0  0  0  0  0  0  0  0  0
    0.5850   17.0210   -0.9940 C   0  0  0  0  0  0  0  0  0  0  0  0
    1.8830   16.2530   -1.2740 C   0  0  1  0  0  0  0  0  0  0  0  0
    3.0920   17.2160   -1.1450 C   0  0  0  0  0  0  0  0  0  0  0  0
    2.9470   18.4580   -2.0200 C   0  0  0  0  0  0  0  0  0  0  0  0
    1.6750   19.2260   -1.6710 C   0  0  2  0  0  0  0  0  0  0  0  0
    1.8060   19.7600   -0.3500 O   0  0  0  0  0  0  0  0  0  0  0  0
    0.3910   18.3540   -1.7570 C   0  0  0  0  0  0  0  0  0  0  0  0
    0.0830   18.0260   -3.2390 C   0  0  0  0  0  0  0  0  0  0  0  0
   -0.8010   19.2080   -1.2450 C   0  0  0  0  0  0  0  0  0  0  0  0
    2.0840   14.9080   -0.4530 C   0  0  1  0  0  0  0  0  0  0  0  0
    2.7490   15.2180    0.9220 C   0  0  0  0  0  0  0  0  0  0  0  0
    3.0860   13.9760   -1.2320 C   0  0  0  0  0  0  0  0  0  0  0  0
    2.4810   13.0320   -2.2880 C   0  0  0  0  0  0  0  0  0  0  0  0
    1.2880   12.2610   -1.7150 C   0  0  2  0  0  0  0  0  0  0  0  0
    1.8160   11.3660   -0.5420 C   0  0  0  0  0  0  0  0  0  0  0  0
    0.5086    9.0180   -1.2646 H   0  0  0  0  0  0  0  0  0  0  0  0
   -0.6426    8.8784   -2.6364 H   0  0  0  0  0  0  0  0  0  0  0  0
    0.8753    7.9179   -2.6364 H   0  0  0  0  0  0  0  0  0  0  0  0
    1.0357    9.8465   -4.1552 H   0  0  0  0  0  0  0  0  0  0  0  0
    2.7916   10.5343   -1.7799 H   0  0  0  0  0  0  0  0  0  0  0  0
    2.9978    9.0011   -2.7542 H   0  0  0  0  0  0  0  0  0  0  0  0
    3.4762   10.2253   -4.7385 H   0  0  0  0  0  0  0  0  0  0  0  0
    3.0481   11.7932   -3.9352 H   0  0  0  0  0  0  0  0  0  0  0  0
    4.6715   10.5405   -2.3619 H   0  0  0  0  0  0  0  0  0  0  0  0
    5.4517    9.4532   -5.7928 H   0  0  0  0  0  0  0  0  0  0  0  0
    5.2957   11.1949   -6.2036 H   0  0  0  0  0  0  0  0  0  0  0  0
    6.9132   10.4134   -6.2036 H   0  0  0  0  0  0  0  0  0  0  0  0
    7.3525   10.5176   -2.5653 H   0  0  0  0  0  0  0  0  0  0  0  0
    7.7727    9.5036   -3.9872 H   0  0  0  0  0  0  0  0  0  0  0  0
    8.1640   11.2567   -3.9872 H   0  0  0  0  0  0  0  0  0  0  0  0
    0.4687   11.8241   -3.6937 H   0  0  0  0  0  0  0  0  0  0  0  0
   -1.6797   11.2722   -2.7364 H   0  0  0  0  0  0  0  0  0  0  0  0
   -0.9497   10.1995   -1.5226 H   0  0  0  0  0  0  0  0  0  0  0  0
   -1.9490   12.8303   -1.0276 H   0  0  0  0  0  0  0  0  0  0  0  0
   -0.9020   11.9473    0.0802 H   0  0  0  0  0  0  0  0  0  0  0  0
   -0.9267   15.0185   -2.0804 H   0  0  0  0  0  0  0  0  0  0  0  0
    0.4622   14.5122   -3.1009 H   0  0  0  0  0  0  0  0  0  0  0  0
   -1.0518   13.5455   -3.1009 H   0  0  0  0  0  0  0  0  0  0  0  0
    0.9153   13.4447    0.6488 H   0  0  0  0  0  0  0  0  0  0  0  0
   -1.3117   14.7092    0.3624 H   0  0  0  0  0  0  0  0  0  0  0  0
   -0.0048   15.3264    1.5028 H   0  0  0  0  0  0  0  0  0  0  0  0
   -1.2293   17.1444    0.0419 H   0  0  0  0  0  0  0  0  0  0  0  0
    1.8038   15.8894   -2.3092 H   0  0  0  0  0  0  0  0  0  0  0  0
    3.1802   17.5326   -0.0952 H   0  0  0  0  0  0  0  0  0  0  0  0
    3.9881   16.6737   -1.4810 H   0  0  0  0  0  0  0  0  0  0  0  0
    3.8171   19.1124   -1.8631 H   0  0  0  0  0  0  0  0  0  0  0  0
    2.8884   18.1414   -3.0718 H   0  0  0  0  0  0  0  0  0  0  0  0
    1.5600   20.0290   -2.4139 H   0  0  0  0  0  0  0  0  0  0  0  0
    2.4710   19.2270    0.1180 H   0  0  0  0  0  0  0  0  0  0  0  0
   -0.6692   17.2249   -3.2886 H   0  0  0  0  0  0  0  0  0  0  0  0
   -0.3050   18.9249   -3.7405 H   0  0  0  0  0  0  0  0  0  0  0  0
    1.0045   17.6952   -3.7405 H   0  0  0  0  0  0  0  0  0  0  0  0
   -0.8045   19.2105   -0.1450 H   0  0  0  0  0  0  0  0  0  0  0  0
   -0.6983   20.2393   -1.6137 H   0  0  0  0  0  0  0  0  0  0  0  0
   -1.7444   18.7791   -1.6137 H   0  0  0  0  0  0  0  0  0  0  0  0
    2.0762   14.9043    1.7337 H   0  0  0  0  0  0  0  0  0  0  0  0
    3.6996   14.6702    1.0014 H   0  0  0  0  0  0  0  0  0  0  0  0
    2.9406   16.2983    1.0014 H   0  0  0  0  0  0  0  0  0  0  0  0
    3.8136   14.6237   -1.7430 H   0  0  0  0  0  0  0  0  0  0  0  0
    3.5154   13.3129   -0.4666 H   0  0  0  0  0  0  0  0  0  0  0  0
    2.1449   13.6256   -3.1509 H   0  0  0  0  0  0  0  0  0  0  0  0
    3.2513   12.3090   -2.5945 H   0  0  0  0  0  0  0  0  0  0  0  0
    1.5451   11.8252    0.4202 H   0  0  0  0  0  0  0  0  0  0  0  0
    1.3632   10.3659   -0.6114 H   0  0  0  0  0  0  0  0  0  0  0  0
    2.9103   11.2786   -0.6114 H   0  0  0  0  0  0  0  0  0  0  0  0
  1  2  1  0
  2  3  1  0
  3  4  1  0
  4  5  1  0
  5  6  1  0
  6  7  1  0
  7  8  1  0
  7  9  1  0
  2 10  1  0
 10 11  1  0
 11 12  1  0
 12 13  1  0
 13 14  1  6
 13 15  1  0
 15 16  1  0
 16 17  1  0
 17 18  2  0
 18 19  1  0
 19 20  1  0
 20 21  1  0
 21 22  1  0
 22 23  1  0
 22 24  1  0
 24 25  1  0
 24 26  1  0
 19 27  1  0
 27 28  1  1
 27 29  1  0
 29 30  1  0
 30 31  1  0
 31 32  1  1
  7  5  1  0
 31 10  1  0
 31 13  1  0
 27 15  1  0
 24 18  1  0
  1 33  1  0
  1 34  1  0
  1 35  1  0
  2 36  1  6
  3 37  1  0
  3 38  1  0
  4 39  1  0
  4 40  1  0
  5 41  1  1
  8 42  1  0
  8 43  1  0
  8 44  1  0
  9 45  1  0
  9 46  1  0
  9 47  1  0
 10 48  1  6
 11 49  1  0
 11 50  1  0
 12 51  1  0
 12 52  1  0
 14 53  1  0
 14 54  1  0
 14 55  1  0
 15 56  1  1
 16 57  1  0
 16 58  1  0
 17 59  1  0
 19 60  1  6
 20 61  1  0
 20 62  1  0
 21 63  1  0
 21 64  1  0
 22 65  1  6
 23 66  1  0
 25 67  1  0
 25 68  1  0
 25 69  1  0
 26 70  1  0
 26 71  1  0
 26 72  1  0
 28 73  1  0
 28 74  1  0
 28 75  1  0
 29 76  1  0
 29 77  1  0
 30 78  1  0
 30 79  1  0
 32 80  1  0
 32 81  1  0
 32 82  1  0
M  END
>  <meeko>  (11) 
{"is_sidechain": [false], "intermolecular_energy": 2.731, "internal_energy": -0.839}

$$$$
EPH_relaxed_0001_pdb2pqr_Repair_129_r2_0001_out
     RDKit          3D

 82 86  0  0  0  0  0  0  0  0999 V2000
    1.5140    9.2620   -1.5160 C   0  0  0  0  0  0  0  0  0  0  0  0
    0.2110   10.0660   -1.4850 C   0  0  2  0  0  0  0  0  0  0  0  0
   -0.3600   10.3020   -2.8980 C   0  0  0  0  0  0  0  0  0  0  0  0
    0.7000   10.2680   -4.0030 C   0  0  0  0  0  0  0  0  0  0  0  0
    0.3630   11.2050   -5.1230 C   0  0  2  0  0  0  0  0  0  0  0  0
    0.6870   10.7150   -6.4310 O   0  0  0  0  0  0  0  0  0  0  0  0
    1.4080   11.8780   -5.9930 C   0  0  0  0  0  0  0  0  0  0  0  0
    2.8700   11.6430   -5.7790 C   0  0  0  0  0  0  0  0  0  0  0  0
    1.0320   13.1300   -6.7220 C   0  0  0  0  0  0  0  0  0  0  0  0
    0.4400   11.4010   -0.7860 C   0  0  1  0  0  0  0  0  0  0  0  0
    1.4700   11.3010    0.3710 C   0  0  0  0  0  0  0  0  0  0  0  0
    2.2530   12.6380    0.3890 C   0  0  0  0  0  0  0  0  0  0  0  0
    1.4370   13.5810   -0.5260 C   0  0  1  0  0  0  0  0  0  0  0  0
    0.2740   14.1050    0.3730 C   0  0  0  0  0  0  0  0  0  0  0  0
    2.2280   14.7560   -1.1890 C   0  0  2  0  0  0  0  0  0  0  0  0
    2.8400   15.7680   -0.2050 C   0  0  0  0  0  0  0  0  0  0  0  0
    1.9650   16.9260    0.1440 C   0  0  0  0  0  0  0  0  0  0  0  0
    0.8580   17.2990   -0.5230 C   0  0  0  0  0  0  0  0  0  0  0  0
    0.4380   16.5840   -1.8140 C   0  0  1  0  0  0  0  0  0  0  0  0
    0.0680   17.6370   -2.8920 C   0  0  0  0  0  0  0  0  0  0  0  0
   -0.9850   18.6280   -2.4050 C   0  0  0  0  0  0  0  0  0  0  0  0
   -0.5070   19.3600   -1.1540 C   0  0  2  0  0  0  0  0  0  0  0  0
    0.6020   20.1940   -1.5030 O   0  0  0  0  0  0  0  0  0  0  0  0
   -0.0970   18.4010   -0.0020 C   0  0  0  0  0  0  0  0  0  0  0  0
   -1.3590   17.7160    0.5790 C   0  0  0  0  0  0  0  0  0  0  0  0
    0.4970   19.2610    1.1460 C   0  0  0  0  0  0  0  0  0  0  0  0
    1.4480   15.4840   -2.3570 C   0  0  1  0  0  0  0  0  0  0  0  0
    2.5270   16.1530   -3.2630 C   0  0  0  0  0  0  0  0  0  0  0  0
    0.6630   14.4730   -3.2740 C   0  0  0  0  0  0  0  0  0  0  0  0
    0.0040   13.2690   -2.5750 C   0  0  0  0  0  0  0  0  0  0  0  0
    0.9960   12.5660   -1.6420 C   0  0  2  0  0  0  0  0  0  0  0  0
    2.1670   12.0090   -2.5220 C   0  0  0  0  0  0  0  0  0  0  0  0
    1.8438    9.0585   -0.4865 H   0  0  0  0  0  0  0  0  0  0  0  0
    1.3454    8.3107   -2.0419 H   0  0  0  0  0  0  0  0  0  0  0  0
    2.2887    9.8394   -2.0419 H   0  0  0  0  0  0  0  0  0  0  0  0
   -0.5286    9.4752   -0.9247 H   0  0  0  0  0  0  0  0  0  0  0  0
   -1.1048    9.5199   -3.1068 H   0  0  0  0  0  0  0  0  0  0  0  0
   -0.7985   11.3108   -2.9036 H   0  0  0  0  0  0  0  0  0  0  0  0
    1.6707   10.5586   -3.5749 H   0  0  0  0  0  0  0  0  0  0  0  0
    0.7386    9.2468   -4.4100 H   0  0  0  0  0  0  0  0  0  0  0  0
   -0.4984   11.6006   -4.5649 H   0  0  0  0  0  0  0  0  0  0  0  0
    3.0818   11.6089   -4.7001 H   0  0  0  0  0  0  0  0  0  0  0  0
    3.1590   10.6869   -6.2398 H   0  0  0  0  0  0  0  0  0  0  0  0
    3.4441   12.4604   -6.2398 H   0  0  0  0  0  0  0  0  0  0  0  0
    0.7946   13.9205   -5.9948 H   0  0  0  0  0  0  0  0  0  0  0  0
    1.8727   13.4532   -7.3535 H   0  0  0  0  0  0  0  0  0  0  0  0
    0.1523   12.9365   -7.3535 H   0  0  0  0  0  0  0  0  0  0  0  0
   -0.5905   11.6233   -0.4719 H   0  0  0  0  0  0  0  0  0  0  0  0
    0.9503   11.1534    1.3292 H   0  0  0  0  0  0  0  0  0  0  0  0
    2.1484   10.4478    0.2233 H   0  0  0  0  0  0  0  0  0  0  0  0
    2.3091   13.0413    1.4109 H   0  0  0  0  0  0  0  0  0  0  0  0
    3.2908   12.5181    0.0447 H   0  0  0  0  0  0  0  0  0  0  0  0
    0.5455   13.9827    1.4319 H   0  0  0  0  0  0  0  0  0  0  0  0
    0.0973   15.1697    0.1604 H   0  0  0  0  0  0  0  0  0  0  0  0
   -0.6406   13.5320    0.1604 H   0  0  0  0  0  0  0  0  0  0  0  0
    3.0805   14.2359   -1.6503 H   0  0  0  0  0  0  0  0  0  0  0  0
    3.0836   15.2334    0.7250 H   0  0  0  0  0  0  0  0  0  0  0  0
    3.7192   16.1924   -0.7119 H   0  0  0  0  0  0  0  0  0  0  0  0
    2.2497   17.5253    1.0213 H   0  0  0  0  0  0  0  0  0  0  0  0
   -0.4487   15.9862   -1.5562 H   0  0  0  0  0  0  0  0  0  0  0  0
    0.9758   18.1939   -3.1671 H   0  0  0  0  0  0  0  0  0  0  0  0
   -0.3535   17.0986   -3.7537 H   0  0  0  0  0  0  0  0  0  0  0  0
   -1.1822   19.3632   -3.1991 H   0  0  0  0  0  0  0  0  0  0  0  0
   -1.9023   18.0732   -2.1585 H   0  0  0  0  0  0  0  0  0  0  0  0
   -1.3510   19.9576   -0.7792 H   0  0  0  0  0  0  0  0  0  0  0  0
    0.2440   21.0370   -1.8320 H   0  0  0  0  0  0  0  0  0  0  0  0
   -1.3158   17.7394    1.6779 H   0  0  0  0  0  0  0  0  0  0  0  0
   -2.2571   18.2504    0.2358 H   0  0  0  0  0  0  0  0  0  0  0  0
   -1.4002   16.6717    0.2358 H   0  0  0  0  0  0  0  0  0  0  0  0
    0.2015   18.8331    2.1153 H   0  0  0  0  0  0  0  0  0  0  0  0
    1.5942   19.2692    1.0680 H   0  0  0  0  0  0  0  0  0  0  0  0
    0.1162   20.2900    1.0680 H   0  0  0  0  0  0  0  0  0  0  0  0
    3.2927   16.6277   -2.6318 H   0  0  0  0  0  0  0  0  0  0  0  0
    2.9979   15.3882   -3.8981 H   0  0  0  0  0  0  0  0  0  0  0  0
    2.0514   16.9149   -3.8981 H   0  0  0  0  0  0  0  0  0  0  0  0
   -0.1311   15.0360   -3.7863 H   0  0  0  0  0  0  0  0  0  0  0  0
    1.4231   14.0385   -3.9399 H   0  0  0  0  0  0  0  0  0  0  0  0
   -0.8560   13.6211   -1.9864 H   0  0  0  0  0  0  0  0  0  0  0  0
   -0.3226   12.5529   -3.3435 H   0  0  0  0  0  0  0  0  0  0  0  0
    2.9669   11.6285   -1.8698 H   0  0  0  0  0  0  0  0  0  0  0  0
    1.7922   11.1927   -3.1570 H   0  0  0  0  0  0  0  0  0  0  0  0
    2.5638   12.8148   -3.1570 H   0  0  0  0  0  0  0  0  0  0  0  0
  1  2  1  0
  2  3  1  0
  3  4  1  0
  4  5  1  0
  5  6  1  0
  6  7  1  0
  7  8  1  0
  7  9  1  0
  2 10  1  0
 10 11  1  0
 11 12  1  0
 12 13  1  0
 13 14  1  1
 13 15  1  0
 15 16  1  0
 16 17  1  0
 17 18  2  0
 18 19  1  0
 19 20  1  0
 20 21  1  0
 21 22  1  0
 22 23  1  0
 22 24  1  0
 24 25  1  0
 24 26  1  0
 19 27  1  0
 27 28  1  6
 27 29  1  0
 29 30  1  0
 30 31  1  0
 31 32  1  6
  7  5  1  0
 31 10  1  0
 31 13  1  0
 27 15  1  0
 24 18  1  0
  1 33  1  0
  1 34  1  0
  1 35  1  0
  2 36  1  1
  3 37  1  0
  3 38  1  0
  4 39  1  0
  4 40  1  0
  5 41  1  6
  8 42  1  0
  8 43  1  0
  8 44  1  0
  9 45  1  0
  9 46  1  0
  9 47  1  0
 10 48  1  1
 11 49  1  0
 11 50  1  0
 12 51  1  0
 12 52  1  0
 14 53  1  0
 14 54  1  0
 14 55  1  0
 15 56  1  6
 16 57  1  0
 16 58  1  0
 17 59  1  0
 19 60  1  1
 20 61  1  0
 20 62  1  0
 21 63  1  0
 21 64  1  0
 22 65  1  1
 23 66  1  0
 25 67  1  0
 25 68  1  0
 25 69  1  0
 26 70  1  0
 26 71  1  0
 26 72  1  0
 28 73  1  0
 28 74  1  0
 28 75  1  0
 29 76  1  0
 29 77  1  0
 30 78  1  0
 30 79  1  0
 32 80  1  0
 32 81  1  0
 32 82  1  0
M  END
>  <meeko>  (12) 
{"is_sidechain": [false], "intermolecular_energy": 2.731, "internal_energy": -0.839}

$$$$
EPH_relaxed_0001_pdb2pqr_Repair_129_r2_0001_out
     RDKit          3D

 82 86  0  0  0  0  0  0  0  0999 V2000
    2.4190   16.2580   -8.2650 C   0  0  0  0  0  0  0  0  0  0  0  0
    2.1440   14.8170   -7.8260 C   0  0  2  0  0  0  0  0  0  0  0  0
    1.1250   14.1140   -8.7450 C   0  0  0  0  0  0  0  0  0  0  0  0
    1.7180   13.6480  -10.0780 C   0  0  0  0  0  0  0  0  0  0  0  0
    2.3970   14.7690  -10.8040 C   0  0  2  0  0  0  0  0  0  0  0  0
    1.5620   15.9030  -11.0700 O   0  0  0  0  0  0  0  0  0  0  0  0
    2.0410   15.1860  -12.2190 C   0  0  0  0  0  0  0  0  0  0  0  0
    0.9670   14.4870  -12.9920 C   0  0  0  0  0  0  0  0  0  0  0  0
    3.0570   15.9400  -13.0200 C   0  0  0  0  0  0  0  0  0  0  0  0
    1.6450   14.7990   -6.3860 C   0  0  1  0  0  0  0  0  0  0  0  0
    0.3320   15.6040   -6.1980 C   0  0  0  0  0  0  0  0  0  0  0  0
   -0.4990   14.8600   -5.1220 C   0  0  0  0  0  0  0  0  0  0  0  0
    0.4910   13.8530   -4.4910 C   0  0  1  0  0  0  0  0  0  0  0  0
    1.3120   14.6890   -3.4600 C   0  0  0  0  0  0  0  0  0  0  0  0
   -0.1400   12.5830   -3.8330 C   0  0  2  0  0  0  0  0  0  0  0  0
   -1.0690   12.8610   -2.6380 C   0  0  0  0  0  0  0  0  0  0  0  0
   -0.4010   12.8760   -1.3020 C   0  0  0  0  0  0  0  0  0  0  0  0
    0.8290   12.3980   -1.0370 C   0  0  0  0  0  0  0  0  0  0  0  0
    1.6450   11.6800   -2.1190 C   0  0  1  0  0  0  0  0  0  0  0  0
    2.2500   10.3780   -1.5330 C   0  0  0  0  0  0  0  0  0  0  0  0
    3.0570   10.6280   -0.2630 C   0  0  0  0  0  0  0  0  0  0  0  0
    2.1960   11.2900    0.8100 C   0  0  2  0  0  0  0  0  0  0  0  0
    1.1900   10.3640    1.2300 O   0  0  0  0  0  0  0  0  0  0  0  0
    1.5260   12.6080    0.3300 C   0  0  0  0  0  0  0  0  0  0  0  0
    2.6030   13.7090    0.1630 C   0  0  0  0  0  0  0  0  0  0  0  0
    0.5760   13.0980    1.4550 C   0  0  0  0  0  0  0  0  0  0  0  0
    0.9010   11.4380   -3.5030 C   0  0  1  0  0  0  0  0  0  0  0  0
    0.0940   10.1050   -3.4470 C   0  0  0  0  0  0  0  0  0  0  0  0
    1.9750   11.2600   -4.6400 C   0  0  0  0  0  0  0  0  0  0  0  0
    2.4720   12.5430   -5.3340 C   0  0  0  0  0  0  0  0  0  0  0  0
    1.2950   13.4200   -5.7710 C   0  0  2  0  0  0  0  0  0  0  0  0
    0.4630   12.6140   -6.8260 C   0  0  0  0  0  0  0  0  0  0  0  0
    2.5406   16.8951   -7.3766 H   0  0  0  0  0  0  0  0  0  0  0  0
    3.3392   16.2887   -8.8669 H   0  0  0  0  0  0  0  0  0  0  0  0
    1.5748   16.6254   -8.8669 H   0  0  0  0  0  0  0  0  0  0  0  0
    3.0913   14.2626   -7.8987 H   0  0  0  0  0  0  0  0  0  0  0  0
    0.7279   13.2355   -8.2154 H   0  0  0  0  0  0  0  0  0  0  0  0
    0.3428   14.8506   -8.9808 H   0  0  0  0  0  0  0  0  0  0  0  0
    2.4526   12.8528   -9.8829 H   0  0  0  0  0  0  0  0  0  0  0  0
    0.8960   13.2788  -10.7088 H   0  0  0  0  0  0  0  0  0  0  0  0
    3.3576   14.5287  -10.3250 H   0  0  0  0  0  0  0  0  0  0  0  0
    0.2549   14.0235  -12.2934 H   0  0  0  0  0  0  0  0  0  0  0  0
    0.4384   15.2146  -13.6254 H   0  0  0  0  0  0  0  0  0  0  0  0
    1.4183   13.7091  -13.6254 H   0  0  0  0  0  0  0  0  0  0  0  0
    3.7513   16.4552  -12.3399 H   0  0  0  0  0  0  0  0  0  0  0  0
    3.6183   15.2381  -13.6543 H   0  0  0  0  0  0  0  0  0  0  0  0
    2.5478   16.6806  -13.6543 H   0  0  0  0  0  0  0  0  0  0  0  0
    2.5254   15.2235   -5.8813 H   0  0  0  0  0  0  0  0  0  0  0  0
    0.5594   16.6261   -5.8611 H   0  0  0  0  0  0  0  0  0  0  0  0
   -0.2240   15.6790   -7.1442 H   0  0  0  0  0  0  0  0  0  0  0  0
   -0.8722   15.5644   -4.3640 H   0  0  0  0  0  0  0  0  0  0  0  0
   -1.3837   14.3639   -5.5477 H   0  0  0  0  0  0  0  0  0  0  0  0
    1.0249   14.3966   -2.4392 H   0  0  0  0  0  0  0  0  0  0  0  0
    2.3857   14.5005   -3.6071 H   0  0  0  0  0  0  0  0  0  0  0  0
    1.1041   15.7591   -3.6071 H   0  0  0  0  0  0  0  0  0  0  0  0
   -0.7900   12.2006   -4.6338 H   0  0  0  0  0  0  0  0  0  0  0  0
   -1.5394   13.8430   -2.7941 H   0  0  0  0  0  0  0  0  0  0  0  0
   -1.7875   12.0285   -2.6103 H   0  0  0  0  0  0  0  0  0  0  0  0
   -0.9619   13.3149   -0.4637 H   0  0  0  0  0  0  0  0  0  0  0  0
    2.4518   12.3727   -2.4006 H   0  0  0  0  0  0  0  0  0  0  0  0
    1.4305    9.6826   -1.2989 H   0  0  0  0  0  0  0  0  0  0  0  0
    2.9337    9.9591   -2.2860 H   0  0  0  0  0  0  0  0  0  0  0  0
    3.4331    9.6676    0.1193 H   0  0  0  0  0  0  0  0  0  0  0  0
    3.8935   11.3000   -0.5055 H   0  0  0  0  0  0  0  0  0  0  0  0
    2.8591   11.5610    1.6447 H   0  0  0  0  0  0  0  0  0  0  0  0
    0.5210   10.3160    0.5250 H   0  0  0  0  0  0  0  0  0  0  0  0
    2.9361   14.0495    1.1545 H   0  0  0  0  0  0  0  0  0  0  0  0
    3.4609   13.3016   -0.3921 H   0  0  0  0  0  0  0  0  0  0  0  0
    2.1768   14.5577   -0.3921 H   0  0  0  0  0  0  0  0  0  0  0  0
    1.0197   12.8691    2.4352 H   0  0  0  0  0  0  0  0  0  0  0  0
    0.4292   14.1843    1.3636 H   0  0  0  0  0  0  0  0  0  0  0  0
   -0.3943   12.5879    1.3636 H   0  0  0  0  0  0  0  0  0  0  0  0
   -0.0765    9.8234   -2.3974 H   0  0  0  0  0  0  0  0  0  0  0  0
   -0.8737   10.2407   -3.9520 H   0  0  0  0  0  0  0  0  0  0  0  0
    0.6629    9.3105   -3.9520 H   0  0  0  0  0  0  0  0  0  0  0  0
    2.8495   10.7616   -4.1965 H   0  0  0  0  0  0  0  0  0  0  0  0
    1.4669   10.6850   -5.4282 H   0  0  0  0  0  0  0  0  0  0  0  0
    3.1028   13.1100   -4.6335 H   0  0  0  0  0  0  0  0  0  0  0  0
    3.0483   12.2585   -6.2267 H   0  0  0  0  0  0  0  0  0  0  0  0
   -0.2333   11.9395   -6.3061 H   0  0  0  0  0  0  0  0  0  0  0  0
   -0.1059   13.3134   -7.4563 H   0  0  0  0  0  0  0  0  0  0  0  0
    1.1440   12.0232   -7.4563 H   0  0  0  0  0  0  0  0  0  0  0  0
  1  2  1  0
  2  3  1  0
  3  4  1  0
  4  5  1  0
  5  6  1  0
  6  7  1  0
  7  8  1  0
  7  9  1  0
  2 10  1  0
 10 11  1  0
 11 12  1  0
 12 13  1  0
 13 14  1  1
 13 15  1  0
 15 16  1  0
 16 17  1  0
 17 18  2  0
 18 19  1  0
 19 20  1  0
 20 21  1  0
 21 22  1  0
 22 23  1  0
 22 24  1  0
 24 25  1  0
 24 26  1  0
 19 27  1  0
 27 28  1  1
 27 29  1  0
 29 30  1  0
 30 31  1  0
 31 32  1  6
  7  5  1  0
 31 10  1  0
 31 13  1  0
 27 15  1  0
 24 18  1  0
  1 33  1  0
  1 34  1  0
  1 35  1  0
  2 36  1  1
  3 37  1  0
  3 38  1  0
  4 39  1  0
  4 40  1  0
  5 41  1  6
  8 42  1  0
  8 43  1  0
  8 44  1  0
  9 45  1  0
  9 46  1  0
  9 47  1  0
 10 48  1  1
 11 49  1  0
 11 50  1  0
 12 51  1  0
 12 52  1  0
 14 53  1  0
 14 54  1  0
 14 55  1  0
 15 56  1  6
 16 57  1  0
 16 58  1  0
 17 59  1  0
 19 60  1  6
 20 61  1  0
 20 62  1  0
 21 63  1  0
 21 64  1  0
 22 65  1  1
 23 66  1  0
 25 67  1  0
 25 68  1  0
 25 69  1  0
 26 70  1  0
 26 71  1  0
 26 72  1  0
 28 73  1  0
 28 74  1  0
 28 75  1  0
 29 76  1  0
 29 77  1  0
 30 78  1  0
 30 79  1  0
 32 80  1  0
 32 81  1  0
 32 82  1  0
M  END
>  <meeko>  (13) 
{"is_sidechain": [false], "intermolecular_energy": 2.731, "internal_energy": -0.839}

$$$$
EPH_relaxed_0001_pdb2pqr_Repair_129_r2_0001_out
     RDKit          3D

 82 86  0  0  0  0  0  0  0  0999 V2000
    2.6680   13.4100   -0.8850 C   0  0  0  0  0  0  0  0  0  0  0  0
    2.3190   12.1210   -1.6340 C   0  0  2  0  0  0  0  0  0  0  0  0
    2.9540   10.8780   -0.9770 C   0  0  0  0  0  0  0  0  0  0  0  0
    1.9620   10.0320   -0.1750 C   0  0  0  0  0  0  0  0  0  0  0  0
    0.6030   10.6620   -0.1330 C   0  0  2  0  0  0  0  0  0  0  0  0
   -0.3160   10.0420    0.7770 O   0  0  0  0  0  0  0  0  0  0  0  0
   -0.6560    9.9670   -0.6170 C   0  0  0  0  0  0  0  0  0  0  0  0
   -0.6150    8.5810   -1.1790 C   0  0  0  0  0  0  0  0  0  0  0  0
   -1.8360   10.8070   -0.9960 C   0  0  0  0  0  0  0  0  0  0  0  0
    2.7650   12.2270   -3.0870 C   0  0  1  0  0  0  0  0  0  0  0  0
    3.7200   11.0770   -3.5050 C   0  0  0  0  0  0  0  0  0  0  0  0
    3.4040   10.7490   -4.9870 C   0  0  0  0  0  0  0  0  0  0  0  0
    2.5240   11.9260   -5.4680 C   0  0  1  0  0  0  0  0  0  0  0  0
    3.5320   13.0690   -5.8050 C   0  0  0  0  0  0  0  0  0  0  0  0
    1.5670   11.6280   -6.6670 C   0  0  2  0  0  0  0  0  0  0  0  0
    2.2680   11.2380   -7.9800 C   0  0  0  0  0  0  0  0  0  0  0  0
    2.5980   12.3750   -8.8900 C   0  0  0  0  0  0  0  0  0  0  0  0
    2.0930   13.6200   -8.8000 C   0  0  0  0  0  0  0  0  0  0  0  0
    1.0160   13.9600   -7.7630 C   0  0  1  0  0  0  0  0  0  0  0  0
   -0.1190   14.7720   -8.4410 C   0  0  0  0  0  0  0  0  0  0  0  0
    0.4010   16.0080   -9.1700 C   0  0  0  0  0  0  0  0  0  0  0  0
    1.4270   15.6230  -10.2330 C   0  0  2  0  0  0  0  0  0  0  0  0
    0.7670   14.8800  -11.2620 O   0  0  0  0  0  0  0  0  0  0  0  0
    2.6130   14.7930   -9.6680 C   0  0  0  0  0  0  0  0  0  0  0  0
    3.5040   15.6960   -8.7800 C   0  0  0  0  0  0  0  0  0  0  0  0
    3.4990   14.3500  -10.8640 C   0  0  0  0  0  0  0  0  0  0  0  0
    0.4650   12.7380   -6.9090 C   0  0  1  0  0  0  0  0  0  0  0  0
   -0.7070   12.0440   -7.6670 C   0  0  0  0  0  0  0  0  0  0  0  0
   -0.1400   13.2840   -5.5610 C   0  0  0  0  0  0  0  0  0  0  0  0
    0.8330   13.4430   -4.3770 C   0  0  0  0  0  0  0  0  0  0  0  0
    1.6640   12.1720   -4.1750 C   0  0  2  0  0  0  0  0  0  0  0  0
    0.6780   11.0100   -3.8120 C   0  0  0  0  0  0  0  0  0  0  0  0
    2.6190   13.2290    0.1989 H   0  0  0  0  0  0  0  0  0  0  0  0
    3.6848   13.7288   -1.1579 H   0  0  0  0  0  0  0  0  0  0  0  0
    1.9509   14.1983   -1.1579 H   0  0  0  0  0  0  0  0  0  0  0  0
    1.2269   11.9972   -1.5888 H   0  0  0  0  0  0  0  0  0  0  0  0
    3.3860   10.2489   -1.7692 H   0  0  0  0  0  0  0  0  0  0  0  0
    3.7133   11.2411   -0.2687 H   0  0  0  0  0  0  0  0  0  0  0  0
    1.8805    9.0396   -0.6424 H   0  0  0  0  0  0  0  0  0  0  0  0
    2.3350    9.9525    0.8568 H   0  0  0  0  0  0  0  0  0  0  0  0
    1.0290   11.6526   -0.3503 H   0  0  0  0  0  0  0  0  0  0  0  0
   -0.5934    7.8519   -0.3556 H   0  0  0  0  0  0  0  0  0  0  0  0
   -1.5085    8.4095   -1.7973 H   0  0  0  0  0  0  0  0  0  0  0  0
    0.2870    8.4626   -1.7973 H   0  0  0  0  0  0  0  0  0  0  0  0
   -2.3388   11.1650   -0.0855 H   0  0  0  0  0  0  0  0  0  0  0  0
   -1.4972   11.6683   -1.5905 H   0  0  0  0  0  0  0  0  0  0  0  0
   -2.5389   10.2049   -1.5905 H   0  0  0  0  0  0  0  0  0  0  0  0
    3.2238   13.2265   -3.0656 H   0  0  0  0  0  0  0  0  0  0  0  0
    4.7671   11.3983   -3.4032 H   0  0  0  0  0  0  0  0  0  0  0  0
    3.5771   10.1932   -2.8659 H   0  0  0  0  0  0  0  0  0  0  0  0
    4.3301   10.6899   -5.5776 H   0  0  0  0  0  0  0  0  0  0  0  0
    2.9003    9.7778   -5.1010 H   0  0  0  0  0  0  0  0  0  0  0  0
    3.9169   13.5055   -4.8715 H   0  0  0  0  0  0  0  0  0  0  0  0
    4.3684   12.6595   -6.3905 H   0  0  0  0  0  0  0  0  0  0  0  0
    3.0211   13.8476   -6.3905 H   0  0  0  0  0  0  0  0  0  0  0  0
    1.0405   10.7235   -6.3284 H   0  0  0  0  0  0  0  0  0  0  0  0
    3.2064   10.7240   -7.7245 H   0  0  0  0  0  0  0  0  0  0  0  0
    1.5545   10.6062   -8.5294 H   0  0  0  0  0  0  0  0  0  0  0  0
    3.3137   12.1791   -9.7020 H   0  0  0  0  0  0  0  0  0  0  0  0
    1.5132   14.5781   -7.0009 H   0  0  0  0  0  0  0  0  0  0  0  0
   -0.6311   14.1236   -9.1672 H   0  0  0  0  0  0  0  0  0  0  0  0
   -0.8033   15.1137   -7.6505 H   0  0  0  0  0  0  0  0  0  0  0  0
   -0.4426   16.5223   -9.6535 H   0  0  0  0  0  0  0  0  0  0  0  0
    0.8860   16.6698   -8.4373 H   0  0  0  0  0  0  0  0  0  0  0  0
    1.8574   16.5547  -10.6289 H   0  0  0  0  0  0  0  0  0  0  0  0
    0.5370   14.0100  -10.8960 H   0  0  0  0  0  0  0  0  0  0  0  0
    3.2973   15.4865   -7.7201 H   0  0  0  0  0  0  0  0  0  0  0  0
    4.5632   15.4907   -8.9945 H   0  0  0  0  0  0  0  0  0  0  0  0
    3.2845   16.7523   -8.9945 H   0  0  0  0  0  0  0  0  0  0  0  0
    4.4226   13.8882  -10.4849 H   0  0  0  0  0  0  0  0  0  0  0  0
    2.9493   13.6207  -11.4772 H   0  0  0  0  0  0  0  0  0  0  0  0
    3.7527   15.2273  -11.4772 H   0  0  0  0  0  0  0  0  0  0  0  0
   -1.4166   11.6238   -6.9391 H   0  0  0  0  0  0  0  0  0  0  0  0
   -1.2233   12.7820   -8.2984 H   0  0  0  0  0  0  0  0  0  0  0  0
   -0.3081   11.2364   -8.2984 H   0  0  0  0  0  0  0  0  0  0  0  0
   -0.5763   14.2723   -5.7682 H   0  0  0  0  0  0  0  0  0  0  0  0
   -0.8625   12.5195   -5.2392 H   0  0  0  0  0  0  0  0  0  0  0  0
    1.5094   14.2869   -4.5780 H   0  0  0  0  0  0  0  0  0  0  0  0
    0.2473   13.6276   -3.4644 H   0  0  0  0  0  0  0  0  0  0  0  0
    0.6027   10.9213   -2.7182 H   0  0  0  0  0  0  0  0  0  0  0  0
   -0.3153   11.2275   -4.2315 H   0  0  0  0  0  0  0  0  0  0  0  0
    1.0543   10.0653   -4.2315 H   0  0  0  0  0  0  0  0  0  0  0  0
  1  2  1  0
  2  3  1  0
  3  4  1  0
  4  5  1  0
  5  6  1  0
  6  7  1  0
  7  8  1  0
  7  9  1  0
  2 10  1  0
 10 11  1  0
 11 12  1  0
 12 13  1  0
 13 14  1  6
 13 15  1  0
 15 16  1  0
 16 17  1  0
 17 18  2  0
 18 19  1  0
 19 20  1  0
 20 21  1  0
 21 22  1  0
 22 23  1  0
 22 24  1  0
 24 25  1  0
 24 26  1  0
 19 27  1  0
 27 28  1  6
 27 29  1  0
 29 30  1  0
 30 31  1  0
 31 32  1  1
  7  5  1  0
 31 10  1  0
 31 13  1  0
 27 15  1  0
 24 18  1  0
  1 33  1  0
  1 34  1  0
  1 35  1  0
  2 36  1  6
  3 37  1  0
  3 38  1  0
  4 39  1  0
  4 40  1  0
  5 41  1  1
  8 42  1  0
  8 43  1  0
  8 44  1  0
  9 45  1  0
  9 46  1  0
  9 47  1  0
 10 48  1  1
 11 49  1  0
 11 50  1  0
 12 51  1  0
 12 52  1  0
 14 53  1  0
 14 54  1  0
 14 55  1  0
 15 56  1  1
 16 57  1  0
 16 58  1  0
 17 59  1  0
 19 60  1  1
 20 61  1  0
 20 62  1  0
 21 63  1  0
 21 64  1  0
 22 65  1  6
 23 66  1  0
 25 67  1  0
 25 68  1  0
 25 69  1  0
 26 70  1  0
 26 71  1  0
 26 72  1  0
 28 73  1  0
 28 74  1  0
 28 75  1  0
 29 76  1  0
 29 77  1  0
 30 78  1  0
 30 79  1  0
 32 80  1  0
 32 81  1  0
 32 82  1  0
M  END
>  <meeko>  (14) 
{"is_sidechain": [false], "intermolecular_energy": 2.731, "internal_energy": -0.839}

$$$$
EPH_relaxed_0001_pdb2pqr_Repair_129_r2_0001_out
     RDKit          3D

 82 86  0  0  0  0  0  0  0  0999 V2000
   -2.1810    7.8420   -1.9030 C   0  0  0  0  0  0  0  0  0  0  0  0
   -2.1160    8.6250   -0.5890 C   0  0  2  0  0  0  0  0  0  0  0  0
   -3.4870    8.6930    0.1140 C   0  0  0  0  0  0  0  0  0  0  0  0
   -4.6720    8.7690   -0.8530 C   0  0  0  0  0  0  0  0  0  0  0  0
   -5.3240    7.4320   -1.0360 C   0  0  2  0  0  0  0  0  0  0  0  0
   -5.4420    7.0050   -2.3990 O   0  0  0  0  0  0  0  0  0  0  0  0
   -6.6750    7.2450   -1.7010 C   0  0  0  0  0  0  0  0  0  0  0  0
   -7.4540    8.4100   -2.2260 C   0  0  0  0  0  0  0  0  0  0  0  0
   -7.4510    6.0000   -1.4050 C   0  0  0  0  0  0  0  0  0  0  0  0
   -1.5930   10.0330   -0.8480 C   0  0  1  0  0  0  0  0  0  0  0  0
   -1.1280   10.7460    0.4500 C   0  0  0  0  0  0  0  0  0  0  0  0
    0.0870   11.6280    0.0650 C   0  0  0  0  0  0  0  0  0  0  0  0
    0.0750   11.6550   -1.4820 C   0  0  1  0  0  0  0  0  0  0  0  0
   -0.9880   12.7350   -1.8560 C   0  0  0  0  0  0  0  0  0  0  0  0
    1.4470   11.9300   -2.1790 C   0  0  2  0  0  0  0  0  0  0  0  0
    2.0720   13.3030   -1.8720 C   0  0  0  0  0  0  0  0  0  0  0  0
    1.6930   14.4000   -2.8110 C   0  0  0  0  0  0  0  0  0  0  0  0
    1.1180   14.2330   -4.0170 C   0  0  0  0  0  0  0  0  0  0  0  0
    0.8790   12.8300   -4.5890 C   0  0  1  0  0  0  0  0  0  0  0  0
    1.3450   12.7880   -6.0680 C   0  0  0  0  0  0  0  0  0  0  0  0
    0.7010   13.8810   -6.9150 C   0  0  0  0  0  0  0  0  0  0  0  0
    1.0100   15.2640   -6.3480 C   0  0  2  0  0  0  0  0  0  0  0  0
    2.4120   15.5160   -6.4850 O   0  0  0  0  0  0  0  0  0  0  0  0
    0.5930   15.4220   -4.8590 C   0  0  0  0  0  0  0  0  0  0  0  0
   -0.9520   15.4500   -4.7510 C   0  0  0  0  0  0  0  0  0  0  0  0
    1.0870   16.8100   -4.3700 C   0  0  0  0  0  0  0  0  0  0  0  0
    1.4590   11.6240   -3.7310 C   0  0  1  0  0  0  0  0  0  0  0  0
    2.9450   11.3590   -4.1220 C   0  0  0  0  0  0  0  0  0  0  0  0
    0.6660   10.3120   -4.0880 C   0  0  0  0  0  0  0  0  0  0  0  0
   -0.6180   10.0350   -3.2830 C   0  0  0  0  0  0  0  0  0  0  0  0
   -0.3630   10.1750   -1.7790 C   0  0  2  0  0  0  0  0  0  0  0  0
    0.6870    9.0860   -1.3690 C   0  0  0  0  0  0  0  0  0  0  0  0
   -2.2702    6.7674   -1.6855 H   0  0  0  0  0  0  0  0  0  0  0  0
   -3.0548    8.1723   -2.4838 H   0  0  0  0  0  0  0  0  0  0  0  0
   -1.2647    8.0237   -2.4838 H   0  0  0  0  0  0  0  0  0  0  0  0
   -1.4270    8.0904    0.0814 H   0  0  0  0  0  0  0  0  0  0  0  0
   -3.6034    7.7931    0.7357 H   0  0  0  0  0  0  0  0  0  0  0  0
   -3.4976    9.6184    0.7086 H   0  0  0  0  0  0  0  0  0  0  0  0
   -5.4139    9.4758   -0.4530 H   0  0  0  0  0  0  0  0  0  0  0  0
   -4.2960    9.1041   -1.8309 H   0  0  0  0  0  0  0  0  0  0  0  0
   -4.9175    7.0759   -0.0779 H   0  0  0  0  0  0  0  0  0  0  0  0
   -7.8471    8.9979   -1.3834 H   0  0  0  0  0  0  0  0  0  0  0  0
   -6.7971    9.0435   -2.8402 H   0  0  0  0  0  0  0  0  0  0  0  0
   -8.2904    8.0450   -2.8402 H   0  0  0  0  0  0  0  0  0  0  0  0
   -7.5326    5.8691   -0.3159 H   0  0  0  0  0  0  0  0  0  0  0  0
   -8.4576    6.0830   -1.8408 H   0  0  0  0  0  0  0  0  0  0  0  0
   -6.9332    5.1329   -1.8408 H   0  0  0  0  0  0  0  0  0  0  0  0
   -2.4799   10.4736   -1.3269 H   0  0  0  0  0  0  0  0  0  0  0  0
   -1.9392   11.3723    0.8496 H   0  0  0  0  0  0  0  0  0  0  0  0
   -0.8557   10.0155    1.2260 H   0  0  0  0  0  0  0  0  0  0  0  0
   -0.0259   12.6437    0.4720 H   0  0  0  0  0  0  0  0  0  0  0  0
    1.0321   11.2352    0.4681 H   0  0  0  0  0  0  0  0  0  0  0  0
   -1.4120   13.1658   -0.9370 H   0  0  0  0  0  0  0  0  0  0  0  0
   -0.5105   13.5302   -2.4473 H   0  0  0  0  0  0  0  0  0  0  0  0
   -1.7907   12.2701   -2.4473 H   0  0  0  0  0  0  0  0  0  0  0  0
    2.1054   11.1887   -1.7026 H   0  0  0  0  0  0  0  0  0  0  0  0
    1.7607   13.5995   -0.8595 H   0  0  0  0  0  0  0  0  0  0  0  0
    3.1592   13.1733   -1.9782 H   0  0  0  0  0  0  0  0  0  0  0  0
    1.9010   15.4316   -2.4907 H   0  0  0  0  0  0  0  0  0  0  0  0
   -0.2064   12.6595   -4.5351 H   0  0  0  0  0  0  0  0  0  0  0  0
    2.4371   12.9164   -6.0975 H   0  0  0  0  0  0  0  0  0  0  0  0
    1.0402   11.8176   -6.4869 H   0  0  0  0  0  0  0  0  0  0  0  0
    1.0909   13.8175   -7.9416 H   0  0  0  0  0  0  0  0  0  0  0  0
   -0.3891   13.7342   -6.9077 H   0  0  0  0  0  0  0  0  0  0  0  0
    0.4181   15.9947   -6.9187 H   0  0  0  0  0  0  0  0  0  0  0  0
    2.8830   14.8480   -5.9580 H   0  0  0  0  0  0  0  0  0  0  0  0
   -1.2454   15.4553   -3.6909 H   0  0  0  0  0  0  0  0  0  0  0  0
   -1.3376   16.3553   -5.2427 H   0  0  0  0  0  0  0  0  0  0  0  0
   -1.3701   14.5593   -5.2427 H   0  0  0  0  0  0  0  0  0  0  0  0
    1.0941   16.8301   -3.2702 H   0  0  0  0  0  0  0  0  0  0  0  0
    2.1046   16.9906   -4.7466 H   0  0  0  0  0  0  0  0  0  0  0  0
    0.4123   17.5929   -4.7466 H   0  0  0  0  0  0  0  0  0  0  0  0
    3.5505   11.2510   -3.2100 H   0  0  0  0  0  0  0  0  0  0  0  0
    3.0088   10.4353   -4.7159 H   0  0  0  0  0  0  0  0  0  0  0  0
    3.3241   12.2037   -4.7159 H   0  0  0  0  0  0  0  0  0  0  0  0
    0.3865   10.3709   -5.1503 H   0  0  0  0  0  0  0  0  0  0  0  0
    1.3475    9.4863   -3.8354 H   0  0  0  0  0  0  0  0  0  0  0  0
   -1.3941   10.7537   -3.5849 H   0  0  0  0  0  0  0  0  0  0  0  0
   -0.9458    9.0054   -3.4889 H   0  0  0  0  0  0  0  0  0  0  0  0
    0.7443    9.0265   -0.2721 H   0  0  0  0  0  0  0  0  0  0  0  0
    0.3802    8.1102   -1.7736 H   0  0  0  0  0  0  0  0  0  0  0  0
    1.6734    9.3570   -1.7736 H   0  0  0  0  0  0  0  0  0  0  0  0
  1  2  1  0
  2  3  1  0
  3  4  1  0
  4  5  1  0
  5  6  1  0
  6  7  1  0
  7  8  1  0
  7  9  1  0
  2 10  1  0
 10 11  1  0
 11 12  1  0
 12 13  1  0
 13 14  1  1
 13 15  1  0
 15 16  1  0
 16 17  1  0
 17 18  2  0
 18 19  1  0
 19 20  1  0
 20 21  1  0
 21 22  1  0
 22 23  1  0
 22 24  1  0
 24 25  1  0
 24 26  1  0
 19 27  1  0
 27 28  1  6
 27 29  1  0
 29 30  1  0
 30 31  1  0
 31 32  1  1
  7  5  1  0
 31 10  1  0
 31 13  1  0
 27 15  1  0
 24 18  1  0
  1 33  1  0
  1 34  1  0
  1 35  1  0
  2 36  1  1
  3 37  1  0
  3 38  1  0
  4 39  1  0
  4 40  1  0
  5 41  1  1
  8 42  1  0
  8 43  1  0
  8 44  1  0
  9 45  1  0
  9 46  1  0
  9 47  1  0
 10 48  1  6
 11 49  1  0
 11 50  1  0
 12 51  1  0
 12 52  1  0
 14 53  1  0
 14 54  1  0
 14 55  1  0
 15 56  1  1
 16 57  1  0
 16 58  1  0
 17 59  1  0
 19 60  1  6
 20 61  1  0
 20 62  1  0
 21 63  1  0
 21 64  1  0
 22 65  1  6
 23 66  1  0
 25 67  1  0
 25 68  1  0
 25 69  1  0
 26 70  1  0
 26 71  1  0
 26 72  1  0
 28 73  1  0
 28 74  1  0
 28 75  1  0
 29 76  1  0
 29 77  1  0
 30 78  1  0
 30 79  1  0
 32 80  1  0
 32 81  1  0
 32 82  1  0
M  END
>  <meeko>  (15) 
{"is_sidechain": [false], "intermolecular_energy": 2.731, "internal_energy": -0.839}

$$$$
EPH_relaxed_0001_pdb2pqr_Repair_129_r2_0001_out
     RDKit          3D

 82 86  0  0  0  0  0  0  0  0999 V2000
    2.6890   18.9090   -1.4030 C   0  0  0  0  0  0  0  0  0  0  0  0
    2.2560   17.8310   -2.4000 C   0  0  2  0  0  0  0  0  0  0  0  0
    0.7740   17.9720   -2.8010 C   0  0  0  0  0  0  0  0  0  0  0  0
    0.1260   19.2710   -2.3130 C   0  0  0  0  0  0  0  0  0  0  0  0
   -1.1880   19.0150   -1.6390 C   0  0  2  0  0  0  0  0  0  0  0  0
   -1.9610   20.1920   -1.3680 O   0  0  0  0  0  0  0  0  0  0  0  0
   -1.5010   19.4580   -0.2210 C   0  0  0  0  0  0  0  0  0  0  0  0
   -0.4940   20.1910    0.6070 C   0  0  0  0  0  0  0  0  0  0  0  0
   -2.5940   18.7560    0.5230 C   0  0  0  0  0  0  0  0  0  0  0  0
    2.5060   16.4480   -1.8100 C   0  0  1  0  0  0  0  0  0  0  0  0
    3.3430   16.4980   -0.5040 C   0  0  0  0  0  0  0  0  0  0  0  0
    2.8150   15.3610    0.4090 C   0  0  0  0  0  0  0  0  0  0  0  0
    1.9330   14.4930   -0.5190 C   0  0  1  0  0  0  0  0  0  0  0  0
    2.9380   13.5800   -1.2890 C   0  0  0  0  0  0  0  0  0  0  0  0
    0.8100   13.6570    0.1780 C   0  0  2  0  0  0  0  0  0  0  0  0
    1.3100   12.5970    1.1740 C   0  0  0  0  0  0  0  0  0  0  0  0
    1.5650   11.2460    0.5930 C   0  0  0  0  0  0  0  0  0  0  0  0
    1.1350   10.8170   -0.6080 C   0  0  0  0  0  0  0  0  0  0  0  0
    0.2240   11.6930   -1.4770 C   0  0  1  0  0  0  0  0  0  0  0  0
   -0.9530   10.8400   -2.0170 C   0  0  0  0  0  0  0  0  0  0  0  0
   -0.4810    9.5860   -2.7470 C   0  0  0  0  0  0  0  0  0  0  0  0
    0.3740    8.7120   -1.8330 C   0  0  2  0  0  0  0  0  0  0  0  0
   -0.4520    8.1980   -0.7840 O   0  0  0  0  0  0  0  0  0  0  0  0
    1.5860    9.4680   -1.2210 C   0  0  0  0  0  0  0  0  0  0  0  0
    2.6290    9.7620   -2.3270 C   0  0  0  0  0  0  0  0  0  0  0  0
    2.2820    8.5160   -0.2100 C   0  0  0  0  0  0  0  0  0  0  0  0
   -0.2620   13.0550   -0.8180 C   0  0  1  0  0  0  0  0  0  0  0  0
   -1.5560   12.8110    0.0170 C   0  0  0  0  0  0  0  0  0  0  0  0
   -0.6540   14.0670   -1.9590 C   0  0  0  0  0  0  0  0  0  0  0  0
    0.4760   14.9490   -2.5230 C   0  0  0  0  0  0  0  0  0  0  0  0
    1.2670   15.6170   -1.3940 C   0  0  2  0  0  0  0  0  0  0  0  0
    0.2870   16.5590   -0.6160 C   0  0  0  0  0  0  0  0  0  0  0  0
    2.5410   18.5404   -0.3772 H   0  0  0  0  0  0  0  0  0  0  0  0
    3.7520   19.1458   -1.5577 H   0  0  0  0  0  0  0  0  0  0  0  0
    2.0852   19.8153   -1.5577 H   0  0  0  0  0  0  0  0  0  0  0  0
    2.8582   17.9618   -3.3112 H   0  0  0  0  0  0  0  0  0  0  0  0
    0.7066   17.9410   -3.8985 H   0  0  0  0  0  0  0  0  0  0  0  0
    0.2312   17.1426   -2.3240 H   0  0  0  0  0  0  0  0  0  0  0  0
    0.8037   19.7611   -1.5986 H   0  0  0  0  0  0  0  0  0  0  0  0
   -0.0561   19.9133   -3.1873 H   0  0  0  0  0  0  0  0  0  0  0  0
   -1.2874   18.0449   -2.1479 H   0  0  0  0  0  0  0  0  0  0  0  0
   -0.7113   20.0328    1.6737 H   0  0  0  0  0  0  0  0  0  0  0  0
    0.5135   19.8135    0.3782 H   0  0  0  0  0  0  0  0  0  0  0  0
   -0.5436   21.2658    0.3782 H   0  0  0  0  0  0  0  0  0  0  0  0
   -2.4280   18.8626    1.6052 H   0  0  0  0  0  0  0  0  0  0  0  0
   -3.5639   19.2005    0.2553 H   0  0  0  0  0  0  0  0  0  0  0  0
   -2.5932   17.6891    0.2553 H   0  0  0  0  0  0  0  0  0  0  0  0
    3.0081   15.9715   -2.6649 H   0  0  0  0  0  0  0  0  0  0  0  0
    4.4077   16.3389   -0.7300 H   0  0  0  0  0  0  0  0  0  0  0  0
    3.2482   17.4768   -0.0111 H   0  0  0  0  0  0  0  0  0  0  0  0
    3.6492   14.7705    0.8157 H   0  0  0  0  0  0  0  0  0  0  0  0
    2.2563   15.7466    1.2746 H   0  0  0  0  0  0  0  0  0  0  0  0
    3.5527   13.0215   -0.5677 H   0  0  0  0  0  0  0  0  0  0  0  0
    2.3808   12.8728   -1.9209 H   0  0  0  0  0  0  0  0  0  0  0  0
    3.5887   14.2023   -1.9209 H   0  0  0  0  0  0  0  0  0  0  0  0
    0.2920   14.4151    0.7838 H   0  0  0  0  0  0  0  0  0  0  0  0
    2.2503   12.9608    1.6139 H   0  0  0  0  0  0  0  0  0  0  0  0
    0.5020   12.4647    1.9086 H   0  0  0  0  0  0  0  0  0  0  0  0
    2.1544   10.5411    1.1978 H   0  0  0  0  0  0  0  0  0  0  0  0
    0.8466   12.0423   -2.3139 H   0  0  0  0  0  0  0  0  0  0  0  0
   -1.5866   10.5375   -1.1702 H   0  0  0  0  0  0  0  0  0  0  0  0
   -1.5085   11.4569   -2.7387 H   0  0  0  0  0  0  0  0  0  0  0  0
   -1.3581    9.0106   -3.0781 H   0  0  0  0  0  0  0  0  0  0  0  0
    0.1275    9.8909   -3.6112 H   0  0  0  0  0  0  0  0  0  0  0  0
    0.7894    7.8991   -2.4467 H   0  0  0  0  0  0  0  0  0  0  0  0
   -1.2980    7.9290   -1.1800 H   0  0  0  0  0  0  0  0  0  0  0  0
    3.5890   10.0326   -1.8631 H   0  0  0  0  0  0  0  0  0  0  0  0
    2.7632    8.8667   -2.9518 H   0  0  0  0  0  0  0  0  0  0  0  0
    2.2758   10.5956   -2.9518 H   0  0  0  0  0  0  0  0  0  0  0  0
    2.0479    8.8362    0.8160 H   0  0  0  0  0  0  0  0  0  0  0  0
    1.9204    7.4888   -0.3650 H   0  0  0  0  0  0  0  0  0  0  0  0
    3.3705    8.5489   -0.3650 H   0  0  0  0  0  0  0  0  0  0  0  0
   -1.3145   12.8565    1.0892 H   0  0  0  0  0  0  0  0  0  0  0  0
   -2.2996   13.5848   -0.2246 H   0  0  0  0  0  0  0  0  0  0  0  0
   -1.9668   11.8196   -0.2246 H   0  0  0  0  0  0  0  0  0  0  0  0
   -1.0686   13.4830   -2.7939 H   0  0  0  0  0  0  0  0  0  0  0  0
   -1.3608   14.7684   -1.4915 H   0  0  0  0  0  0  0  0  0  0  0  0
    1.1574   14.3234   -3.1183 H   0  0  0  0  0  0  0  0  0  0  0  0
    0.0278   15.7346   -3.1491 H   0  0  0  0  0  0  0  0  0  0  0  0
    0.4290   16.4225    0.4662 H   0  0  0  0  0  0  0  0  0  0  0  0
    0.4943   17.6055   -0.8839 H   0  0  0  0  0  0  0  0  0  0  0  0
   -0.7505   16.3105   -0.8839 H   0  0  0  0  0  0  0  0  0  0  0  0
  1  2  1  0
  2  3  1  0
  3  4  1  0
  4  5  1  0
  5  6  1  0
  6  7  1  0
  7  8  1  0
  7  9  1  0
  2 10  1  0
 10 11  1  0
 11 12  1  0
 12 13  1  0
 13 14  1  6
 13 15  1  0
 15 16  1  0
 16 17  1  0
 17 18  2  0
 18 19  1  0
 19 20  1  0
 20 21  1  0
 21 22  1  0
 22 23  1  0
 22 24  1  0
 24 25  1  0
 24 26  1  0
 19 27  1  0
 27 28  1  1
 27 29  1  0
 29 30  1  0
 30 31  1  0
 31 32  1  1
  7  5  1  0
 31 10  1  0
 31 13  1  0
 27 15  1  0
 24 18  1  0
  1 33  1  0
  1 34  1  0
  1 35  1  0
  2 36  1  6
  3 37  1  0
  3 38  1  0
  4 39  1  0
  4 40  1  0
  5 41  1  6
  8 42  1  0
  8 43  1  0
  8 44  1  0
  9 45  1  0
  9 46  1  0
  9 47  1  0
 10 48  1  6
 11 49  1  0
 11 50  1  0
 12 51  1  0
 12 52  1  0
 14 53  1  0
 14 54  1  0
 14 55  1  0
 15 56  1  1
 16 57  1  0
 16 58  1  0
 17 59  1  0
 19 60  1  6
 20 61  1  0
 20 62  1  0
 21 63  1  0
 21 64  1  0
 22 65  1  6
 23 66  1  0
 25 67  1  0
 25 68  1  0
 25 69  1  0
 26 70  1  0
 26 71  1  0
 26 72  1  0
 28 73  1  0
 28 74  1  0
 28 75  1  0
 29 76  1  0
 29 77  1  0
 30 78  1  0
 30 79  1  0
 32 80  1  0
 32 81  1  0
 32 82  1  0
M  END
>  <meeko>  (16) 
{"is_sidechain": [false], "intermolecular_energy": 2.731, "internal_energy": -0.839}

$$$$
EPH_relaxed_0001_pdb2pqr_Repair_129_r2_0001_out
     RDKit          3D

 82 86  0  0  0  0  0  0  0  0999 V2000
    2.3190   10.5790   -1.2260 C   0  0  0  0  0  0  0  0  0  0  0  0
    2.7240   12.0180   -1.5560 C   0  0  2  0  0  0  0  0  0  0  0  0
    1.6150   13.0290   -1.2040 C   0  0  0  0  0  0  0  0  0  0  0  0
    2.1450   14.4020   -0.7810 C   0  0  0  0  0  0  0  0  0  0  0  0
    1.1370   15.4850   -1.0260 C   0  0  2  0  0  0  0  0  0  0  0  0
    1.4820   16.3970   -2.0760 O   0  0  0  0  0  0  0  0  0  0  0  0
    1.4050   16.9530   -0.7540 C   0  0  0  0  0  0  0  0  0  0  0  0
    2.7190   17.4200   -0.2110 C   0  0  0  0  0  0  0  0  0  0  0  0
    0.2370   17.8680   -0.5520 C   0  0  0  0  0  0  0  0  0  0  0  0
    3.0810   12.1310   -3.0340 C   0  0  1  0  0  0  0  0  0  0  0  0
    3.9920   10.9720   -3.5190 C   0  0  0  0  0  0  0  0  0  0  0  0
    3.5800   10.6610   -4.9810 C   0  0  0  0  0  0  0  0  0  0  0  0
    2.6890   11.8540   -5.3970 C   0  0  1  0  0  0  0  0  0  0  0  0
    3.6910   12.9860   -5.7870 C   0  0  0  0  0  0  0  0  0  0  0  0
    1.6560   11.5800   -6.5380 C   0  0  2  0  0  0  0  0  0  0  0  0
    2.2700   11.1910   -7.8950 C   0  0  0  0  0  0  0  0  0  0  0  0
    2.5590   12.3320   -8.8140 C   0  0  0  0  0  0  0  0  0  0  0  0
    2.0780   13.5820   -8.6840 C   0  0  0  0  0  0  0  0  0  0  0  0
    1.0720   13.9290   -7.5790 C   0  0  1  0  0  0  0  0  0  0  0  0
   -0.0900   14.7620   -8.1800 C   0  0  0  0  0  0  0  0  0  0  0  0
    0.4010   15.9960   -8.9290 C   0  0  0  0  0  0  0  0  0  0  0  0
    1.3540   15.6070  -10.0570 C   0  0  2  0  0  0  0  0  0  0  0  0
    0.6210   14.8820  -11.0490 O   0  0  0  0  0  0  0  0  0  0  0  0
    2.5610   14.7550   -9.5720 C   0  0  0  0  0  0  0  0  0  0  0  0
    3.5180   15.6380   -8.7340 C   0  0  0  0  0  0  0  0  0  0  0  0
    3.3650   14.3110  -10.8240 C   0  0  0  0  0  0  0  0  0  0  0  0
    0.5570   12.7070   -6.7020 C   0  0  1  0  0  0  0  0  0  0  0  0
   -0.6690   12.0360   -7.3930 C   0  0  0  0  0  0  0  0  0  0  0  0
    0.0450   13.2490   -5.3160 C   0  0  0  0  0  0  0  0  0  0  0  0
    1.0910   13.3850   -4.1930 C   0  0  0  0  0  0  0  0  0  0  0  0
    1.9140   12.1010   -4.0520 C   0  0  2  0  0  0  0  0  0  0  0  0
    0.9360   10.9490   -3.6390 C   0  0  0  0  0  0  0  0  0  0  0  0
    2.2826   10.4495   -0.1343 H   0  0  0  0  0  0  0  0  0  0  0  0
    1.3272   10.3701   -1.6533 H   0  0  0  0  0  0  0  0  0  0  0  0
    3.0563    9.8834   -1.6533 H   0  0  0  0  0  0  0  0  0  0  0  0
    3.6021   12.2639   -0.9407 H   0  0  0  0  0  0  0  0  0  0  0  0
    0.9730   13.1617   -2.0873 H   0  0  0  0  0  0  0  0  0  0  0  0
    1.0662   12.6175   -0.3441 H   0  0  0  0  0  0  0  0  0  0  0  0
    2.3866   14.3759    0.2918 H   0  0  0  0  0  0  0  0  0  0  0  0
    3.0397   14.6241   -1.3811 H   0  0  0  0  0  0  0  0  0  0  0  0
    0.3133   14.8182   -0.7311 H   0  0  0  0  0  0  0  0  0  0  0  0
    2.6864   17.4084    0.8885 H   0  0  0  0  0  0  0  0  0  0  0  0
    3.5190   16.7511   -0.5612 H   0  0  0  0  0  0  0  0  0  0  0  0
    2.9175   18.4437   -0.5612 H   0  0  0  0  0  0  0  0  0  0  0  0
    0.0611   18.0058    0.5251 H   0  0  0  0  0  0  0  0  0  0  0  0
    0.4498   18.8422   -1.0163 H   0  0  0  0  0  0  0  0  0  0  0  0
   -0.6579   17.4282   -1.0163 H   0  0  0  0  0  0  0  0  0  0  0  0
    3.5543   13.1240   -3.0335 H   0  0  0  0  0  0  0  0  0  0  0  0
    5.0478   11.2783   -3.4800 H   0  0  0  0  0  0  0  0  0  0  0  0
    3.8768   10.0848   -2.8790 H   0  0  0  0  0  0  0  0  0  0  0  0
    4.4667   10.5942   -5.6285 H   0  0  0  0  0  0  0  0  0  0  0  0
    3.0564    9.6978   -5.0710 H   0  0  0  0  0  0  0  0  0  0  0  0
    4.0980   13.4458   -4.8744 H   0  0  0  0  0  0  0  0  0  0  0  0
    4.5130   12.5596   -6.3807 H   0  0  0  0  0  0  0  0  0  0  0  0
    3.1679   13.7502   -6.3807 H   0  0  0  0  0  0  0  0  0  0  0  0
    1.1379   10.6797   -6.1759 H   0  0  0  0  0  0  0  0  0  0  0  0
    3.2151   10.6623   -7.7016 H   0  0  0  0  0  0  0  0  0  0  0  0
    1.5162   10.5728   -8.4045 H   0  0  0  0  0  0  0  0  0  0  0  0
    3.2212   12.1339   -9.6697 H   0  0  0  0  0  0  0  0  0  0  0  0
    1.6235   14.5338   -6.8441 H   0  0  0  0  0  0  0  0  0  0  0  0
   -0.6544   14.1269   -8.8787 H   0  0  0  0  0  0  0  0  0  0  0  0
   -0.7197   15.1063   -7.3464 H   0  0  0  0  0  0  0  0  0  0  0  0
   -0.4636   16.5261   -9.3550 H   0  0  0  0  0  0  0  0  0  0  0  0
    0.9398   16.6442   -8.2222 H   0  0  0  0  0  0  0  0  0  0  0  0
    1.7723   16.5359  -10.4718 H   0  0  0  0  0  0  0  0  0  0  0  0
   -0.3120   14.8710  -10.7770 H   0  0  0  0  0  0  0  0  0  0  0  0
    3.3321   15.4665   -7.6635 H   0  0  0  0  0  0  0  0  0  0  0  0
    4.5599   15.3773   -8.9716 H   0  0  0  0  0  0  0  0  0  0  0  0
    3.3418   16.6975   -8.9716 H   0  0  0  0  0  0  0  0  0  0  0  0
    4.2869   13.8019  -10.5062 H   0  0  0  0  0  0  0  0  0  0  0  0
    2.7547   13.6221  -11.4264 H   0  0  0  0  0  0  0  0  0  0  0  0
    3.6230   15.1945  -11.4264 H   0  0  0  0  0  0  0  0  0  0  0  0
   -1.3605   11.6575   -6.6258 H   0  0  0  0  0  0  0  0  0  0  0  0
   -1.1869   12.7764   -8.0203 H   0  0  0  0  0  0  0  0  0  0  0  0
   -0.3245   11.2007   -8.0203 H   0  0  0  0  0  0  0  0  0  0  0  0
   -0.3895   14.2448   -5.4882 H   0  0  0  0  0  0  0  0  0  0  0  0
   -0.6663   12.4911   -4.9560 H   0  0  0  0  0  0  0  0  0  0  0  0
    1.7659   14.2209   -4.4292 H   0  0  0  0  0  0  0  0  0  0  0  0
    0.5654   13.5706   -3.2447 H   0  0  0  0  0  0  0  0  0  0  0  0
    0.8840   10.8878   -2.5419 H   0  0  0  0  0  0  0  0  0  0  0  0
   -0.0661   11.1564   -4.0425 H   0  0  0  0  0  0  0  0  0  0  0  0
    1.3033    9.9939   -4.0425 H   0  0  0  0  0  0  0  0  0  0  0  0
  1  2  1  0
  2  3  1  0
  3  4  1  0
  4  5  1  0
  5  6  1  0
  6  7  1  0
  7  8  1  0
  7  9  1  0
  2 10  1  0
 10 11  1  0
 11 12  1  0
 12 13  1  0
 13 14  1  6
 13 15  1  0
 15 16  1  0
 16 17  1  0
 17 18  2  0
 18 19  1  0
 19 20  1  0
 20 21  1  0
 21 22  1  0
 22 23  1  0
 22 24  1  0
 24 25  1  0
 24 26  1  0
 19 27  1  0
 27 28  1  6
 27 29  1  0
 29 30  1  0
 30 31  1  0
 31 32  1  1
  7  5  1  0
 31 10  1  0
 31 13  1  0
 27 15  1  0
 24 18  1  0
  1 33  1  0
  1 34  1  0
  1 35  1  0
  2 36  1  1
  3 37  1  0
  3 38  1  0
  4 39  1  0
  4 40  1  0
  5 41  1  6
  8 42  1  0
  8 43  1  0
  8 44  1  0
  9 45  1  0
  9 46  1  0
  9 47  1  0
 10 48  1  1
 11 49  1  0
 11 50  1  0
 12 51  1  0
 12 52  1  0
 14 53  1  0
 14 54  1  0
 14 55  1  0
 15 56  1  1
 16 57  1  0
 16 58  1  0
 17 59  1  0
 19 60  1  1
 20 61  1  0
 20 62  1  0
 21 63  1  0
 21 64  1  0
 22 65  1  6
 23 66  1  0
 25 67  1  0
 25 68  1  0
 25 69  1  0
 26 70  1  0
 26 71  1  0
 26 72  1  0
 28 73  1  0
 28 74  1  0
 28 75  1  0
 29 76  1  0
 29 77  1  0
 30 78  1  0
 30 79  1  0
 32 80  1  0
 32 81  1  0
 32 82  1  0
M  END
>  <meeko>  (17) 
{"is_sidechain": [false], "intermolecular_energy": 2.731, "internal_energy": -0.839}

$$$$
EPH_relaxed_0001_pdb2pqr_Repair_129_r2_0001_out
     RDKit          3D

 82 86  0  0  0  0  0  0  0  0999 V2000
   -3.9520    7.3360   -3.5700 C   0  0  0  0  0  0  0  0  0  0  0  0
   -3.6720    7.2680   -2.0660 C   0  0  2  0  0  0  0  0  0  0  0  0
   -4.9200    6.8500   -1.2620 C   0  0  0  0  0  0  0  0  0  0  0  0
   -6.0970    6.4110   -2.1360 C   0  0  0  0  0  0  0  0  0  0  0  0
   -7.4010    6.9360   -1.6150 C   0  0  2  0  0  0  0  0  0  0  0  0
   -8.3260    5.9260   -1.1920 O   0  0  0  0  0  0  0  0  0  0  0  0
   -8.7290    6.7230   -2.3180 C   0  0  0  0  0  0  0  0  0  0  0  0
   -8.8190    5.9610   -3.6020 C   0  0  0  0  0  0  0  0  0  0  0  0
   -9.8540    7.6640   -2.0190 C   0  0  0  0  0  0  0  0  0  0  0  0
   -3.1610    8.6160   -1.5710 C   0  0  1  0  0  0  0  0  0  0  0  0
   -3.8190    9.0500   -0.2340 C   0  0  0  0  0  0  0  0  0  0  0  0
   -2.7340    9.8110    0.5710 C   0  0  0  0  0  0  0  0  0  0  0  0
   -1.6050   10.0780   -0.4510 C   0  0  1  0  0  0  0  0  0  0  0  0
   -2.0740   11.3360   -1.2480 C   0  0  0  0  0  0  0  0  0  0  0  0
   -0.1700   10.2710    0.1390 C   0  0  2  0  0  0  0  0  0  0  0  0
   -0.0060   11.4830    1.0730 C   0  0  0  0  0  0  0  0  0  0  0  0
    0.4030   12.7530    0.4030 C   0  0  0  0  0  0  0  0  0  0  0  0
    0.9050   12.8550   -0.8420 C   0  0  0  0  0  0  0  0  0  0  0  0
    1.1980   11.6020   -1.6770 C   0  0  1  0  0  0  0  0  0  0  0  0
    2.6020   11.7270   -2.3240 C   0  0  0  0  0  0  0  0  0  0  0  0
    2.7650   13.0150   -3.1260 C   0  0  0  0  0  0  0  0  0  0  0  0
    2.5230   14.2390   -2.2470 C   0  0  2  0  0  0  0  0  0  0  0  0
    3.5660   14.3190   -1.2710 O   0  0  0  0  0  0  0  0  0  0  0  0
    1.1410   14.2190   -1.5350 C   0  0  0  0  0  0  0  0  0  0  0  0
    0.0160   14.4370   -2.5760 C   0  0  0  0  0  0  0  0  0  0  0  0
    1.0830   15.4360   -0.5720 C   0  0  0  0  0  0  0  0  0  0  0  0
    0.9880   10.2110   -0.9380 C   0  0  1  0  0  0  0  0  0  0  0  0
    2.2870    9.8130   -0.1740 C   0  0  0  0  0  0  0  0  0  0  0  0
    0.7450    9.0880   -2.0150 C   0  0  0  0  0  0  0  0  0  0  0  0
   -0.7100    8.8640   -2.4700 C   0  0  0  0  0  0  0  0  0  0  0  0
   -1.6470    8.7340   -1.2650 C   0  0  2  0  0  0  0  0  0  0  0  0
   -1.2130    7.4640   -0.4570 C   0  0  0  0  0  0  0  0  0  0  0  0
   -5.0088    7.5927   -3.7350 H   0  0  0  0  0  0  0  0  0  0  0  0
   -3.3122    8.1049   -4.0277 H   0  0  0  0  0  0  0  0  0  0  0  0
   -3.7361    6.3593   -4.0277 H   0  0  0  0  0  0  0  0  0  0  0  0
   -2.9030    6.4978   -1.9067 H   0  0  0  0  0  0  0  0  0  0  0  0
   -4.6447    6.0125   -0.6042 H   0  0  0  0  0  0  0  0  0  0  0  0
   -5.2507    7.7352   -0.6989 H   0  0  0  0  0  0  0  0  0  0  0  0
   -5.9430    6.7892   -3.1574 H   0  0  0  0  0  0  0  0  0  0  0  0
   -6.1410    5.3119   -2.1249 H   0  0  0  0  0  0  0  0  0  0  0  0
   -6.9092    7.8395   -1.2252 H   0  0  0  0  0  0  0  0  0  0  0  0
   -8.9455    4.8901   -3.3847 H   0  0  0  0  0  0  0  0  0  0  0  0
   -9.6808    6.3216   -4.1827 H   0  0  0  0  0  0  0  0  0  0  0  0
   -7.8969    6.1109   -4.1827 H   0  0  0  0  0  0  0  0  0  0  0  0
   -9.9707    7.7616   -0.9296 H   0  0  0  0  0  0  0  0  0  0  0  0
   -9.6328    8.6499   -2.4539 H   0  0  0  0  0  0  0  0  0  0  0  0
  -10.7853    7.2720   -2.4539 H   0  0  0  0  0  0  0  0  0  0  0  0
   -3.4188    9.2408   -2.4388 H   0  0  0  0  0  0  0  0  0  0  0  0
   -4.6773    9.7093   -0.4305 H   0  0  0  0  0  0  0  0  0  0  0  0
   -4.1883    8.1783    0.3262 H   0  0  0  0  0  0  0  0  0  0  0  0
   -3.1342   10.7575    0.9635 H   0  0  0  0  0  0  0  0  0  0  0  0
   -2.3817    9.2378    1.4412 H   0  0  0  0  0  0  0  0  0  0  0  0
   -2.3691   12.1275   -0.5434 H   0  0  0  0  0  0  0  0  0  0  0  0
   -1.2501   11.6972   -1.8811 H   0  0  0  0  0  0  0  0  0  0  0  0
   -2.9332   11.0697   -1.8811 H   0  0  0  0  0  0  0  0  0  0  0  0
   -0.0573    9.3831    0.7784 H   0  0  0  0  0  0  0  0  0  0  0  0
   -0.9690   11.6582    1.5749 H   0  0  0  0  0  0  0  0  0  0  0  0
    0.8105   11.2266    1.7641 H   0  0  0  0  0  0  0  0  0  0  0  0
    0.2840   13.6848    0.9754 H   0  0  0  0  0  0  0  0  0  0  0  0
    0.4272   11.5728   -2.4612 H   0  0  0  0  0  0  0  0  0  0  0  0
    3.3601   11.7096   -1.5272 H   0  0  0  0  0  0  0  0  0  0  0  0
    2.7253   10.8834   -3.0191 H   0  0  0  0  0  0  0  0  0  0  0  0
    3.7864   13.0595   -3.5319 H   0  0  0  0  0  0  0  0  0  0  0  0
    2.0267   13.0167   -3.9414 H   0  0  0  0  0  0  0  0  0  0  0  0
    2.5245   15.1218   -2.9033 H   0  0  0  0  0  0  0  0  0  0  0  0
    4.1390   15.0660   -1.5130 H   0  0  0  0  0  0  0  0  0  0  0  0
   -0.9351   14.6213   -2.0549 H   0  0  0  0  0  0  0  0  0  0  0  0
    0.2627   15.3040   -3.2064 H   0  0  0  0  0  0  0  0  0  0  0  0
   -0.0790   13.5406   -3.2064 H   0  0  0  0  0  0  0  0  0  0  0  0
    1.0999   15.0810    0.4690 H   0  0  0  0  0  0  0  0  0  0  0  0
    1.9511   16.0873   -0.7514 H   0  0  0  0  0  0  0  0  0  0  0  0
    0.1569   16.0018   -0.7514 H   0  0  0  0  0  0  0  0  0  0  0  0
    2.1065    9.8683    0.9097 H   0  0  0  0  0  0  0  0  0  0  0  0
    2.5725    8.7862   -0.4463 H   0  0  0  0  0  0  0  0  0  0  0  0
    3.0987   10.5037   -0.4463 H   0  0  0  0  0  0  0  0  0  0  0  0
    1.3358    9.3479   -2.9057 H   0  0  0  0  0  0  0  0  0  0  0  0
    1.0402    8.1493   -1.5233 H   0  0  0  0  0  0  0  0  0  0  0  0
   -1.0305    9.7181   -3.0846 H   0  0  0  0  0  0  0  0  0  0  0  0
   -0.7560    7.9320   -3.0525 H   0  0  0  0  0  0  0  0  0  0  0  0
   -1.2844    7.6729    0.6206 H   0  0  0  0  0  0  0  0  0  0  0  0
   -1.8748    6.6232   -0.7121 H   0  0  0  0  0  0  0  0  0  0  0  0
   -0.1750    7.2041   -0.7121 H   0  0  0  0  0  0  0  0  0  0  0  0
  1  2  1  0
  2  3  1  0
  3  4  1  0
  4  5  1  0
  5  6  1  0
  6  7  1  0
  7  8  1  0
  7  9  1  0
  2 10  1  0
 10 11  1  0
 11 12  1  0
 12 13  1  0
 13 14  1  6
 13 15  1  0
 15 16  1  0
 16 17  1  0
 17 18  2  0
 18 19  1  0
 19 20  1  0
 20 21  1  0
 21 22  1  0
 22 23  1  0
 22 24  1  0
 24 25  1  0
 24 26  1  0
 19 27  1  0
 27 28  1  1
 27 29  1  0
 29 30  1  0
 30 31  1  0
 31 32  1  1
  7  5  1  0
 31 10  1  0
 31 13  1  0
 27 15  1  0
 24 18  1  0
  1 33  1  0
  1 34  1  0
  1 35  1  0
  2 36  1  6
  3 37  1  0
  3 38  1  0
  4 39  1  0
  4 40  1  0
  5 41  1  1
  8 42  1  0
  8 43  1  0
  8 44  1  0
  9 45  1  0
  9 46  1  0
  9 47  1  0
 10 48  1  6
 11 49  1  0
 11 50  1  0
 12 51  1  0
 12 52  1  0
 14 53  1  0
 14 54  1  0
 14 55  1  0
 15 56  1  1
 16 57  1  0
 16 58  1  0
 17 59  1  0
 19 60  1  6
 20 61  1  0
 20 62  1  0
 21 63  1  0
 21 64  1  0
 22 65  1  6
 23 66  1  0
 25 67  1  0
 25 68  1  0
 25 69  1  0
 26 70  1  0
 26 71  1  0
 26 72  1  0
 28 73  1  0
 28 74  1  0
 28 75  1  0
 29 76  1  0
 29 77  1  0
 30 78  1  0
 30 79  1  0
 32 80  1  0
 32 81  1  0
 32 82  1  0
M  END
>  <meeko>  (18) 
{"is_sidechain": [false], "intermolecular_energy": 2.731, "internal_energy": -0.839}

$$$$
EPH_relaxed_0001_pdb2pqr_Repair_129_r2_0001_out
     RDKit          3D

 82 86  0  0  0  0  0  0  0  0999 V2000
    2.2000   19.7230   -1.6790 C   0  0  0  0  0  0  0  0  0  0  0  0
    2.2230   18.9460   -0.3600 C   0  0  2  0  0  0  0  0  0  0  0  0
    3.1710   19.5860    0.6740 C   0  0  0  0  0  0  0  0  0  0  0  0
    4.1230   18.5870    1.3370 C   0  0  0  0  0  0  0  0  0  0  0  0
    4.3650   18.9230    2.7770 C   0  0  2  0  0  0  0  0  0  0  0  0
    5.0130   20.1830    2.9970 O   0  0  0  0  0  0  0  0  0  0  0  0
    5.7480   19.0140    3.3940 C   0  0  0  0  0  0  0  0  0  0  0  0
    6.9820   18.7660    2.5840 C   0  0  0  0  0  0  0  0  0  0  0  0
    5.8820   18.8610    4.8770 C   0  0  0  0  0  0  0  0  0  0  0  0
    2.6290   17.5000   -0.6140 C   0  0  1  0  0  0  0  0  0  0  0  0
    3.0000   16.7450    0.6900 C   0  0  0  0  0  0  0  0  0  0  0  0
    2.5320   15.2780    0.5060 C   0  0  0  0  0  0  0  0  0  0  0  0
    2.2150   15.1560   -1.0030 C   0  0  1  0  0  0  0  0  0  0  0  0
    3.6000   14.9320   -1.6870 C   0  0  0  0  0  0  0  0  0  0  0  0
    1.1860   14.0490   -1.4060 C   0  0  2  0  0  0  0  0  0  0  0  0
    1.6200   12.6080   -1.0850 C   0  0  0  0  0  0  0  0  0  0  0  0
    2.3700   11.9110   -2.1720 C   0  0  0  0  0  0  0  0  0  0  0  0
    2.4380   12.3110   -3.4550 C   0  0  0  0  0  0  0  0  0  0  0  0
    1.6350   13.5210   -3.9470 C   0  0  1  0  0  0  0  0  0  0  0  0
    0.9270   13.1660   -5.2810 C   0  0  0  0  0  0  0  0  0  0  0  0
    1.8970   12.6410   -6.3360 C   0  0  0  0  0  0  0  0  0  0  0  0
    2.6340   11.4030   -5.8320 C   0  0  2  0  0  0  0  0  0  0  0  0
    1.6940   10.3360   -5.6810 O   0  0  0  0  0  0  0  0  0  0  0  0
    3.3780   11.6390   -4.4870 C   0  0  0  0  0  0  0  0  0  0  0  0
    4.5920   12.5720   -4.7200 C   0  0  0  0  0  0  0  0  0  0  0  0
    3.9600   10.2780   -4.0190 C   0  0  0  0  0  0  0  0  0  0  0  0
    0.6470   14.1740   -2.8880 C   0  0  1  0  0  0  0  0  0  0  0  0
   -0.7300   13.4440   -2.9230 C   0  0  0  0  0  0  0  0  0  0  0  0
    0.3670   15.6690   -3.2990 C   0  0  0  0  0  0  0  0  0  0  0  0
    1.3510   16.7300   -2.7710 C   0  0  0  0  0  0  0  0  0  0  0  0
    1.5750   16.5680   -1.2640 C   0  0  2  0  0  0  0  0  0  0  0  0
    0.2030   16.8100   -0.5470 C   0  0  0  0  0  0  0  0  0  0  0  0
    2.1681   20.8022   -1.4683 H   0  0  0  0  0  0  0  0  0  0  0  0
    3.1055   19.4891   -2.2582 H   0  0  0  0  0  0  0  0  0  0  0  0
    1.3100   19.4360   -2.2582 H   0  0  0  0  0  0  0  0  0  0  0  0
    1.2067   18.9773    0.0596 H   0  0  0  0  0  0  0  0  0  0  0  0
    3.7724   20.3538    0.1653 H   0  0  0  0  0  0  0  0  0  0  0  0
    2.5405   20.0069    1.4711 H   0  0  0  0  0  0  0  0  0  0  0  0
    3.6833   17.5806    1.2749 H   0  0  0  0  0  0  0  0  0  0  0  0
    5.0868   18.6297    0.8086 H   0  0  0  0  0  0  0  0  0  0  0  0
    3.4561   18.3827    3.0802 H   0  0  0  0  0  0  0  0  0  0  0  0
    7.8345   18.5947    3.2577 H   0  0  0  0  0  0  0  0  0  0  0  0
    6.8322   17.8800    1.9495 H   0  0  0  0  0  0  0  0  0  0  0  0
    7.1861   19.6411    1.9495 H   0  0  0  0  0  0  0  0  0  0  0  0
    5.2379   19.5965    5.3812 H   0  0  0  0  0  0  0  0  0  0  0  0
    5.5777   17.8453    5.1698 H   0  0  0  0  0  0  0  0  0  0  0  0
    6.9290   19.0288    5.1698 H   0  0  0  0  0  0  0  0  0  0  0  0
    3.4657   17.6639   -1.3090 H   0  0  0  0  0  0  0  0  0  0  0  0
    4.0877   16.7783    0.8506 H   0  0  0  0  0  0  0  0  0  0  0  0
    2.5181   17.2066    1.5645 H   0  0  0  0  0  0  0  0  0  0  0  0
    3.3296   14.5770    0.7932 H   0  0  0  0  0  0  0  0  0  0  0  0
    1.6634   15.0351    1.1357 H   0  0  0  0  0  0  0  0  0  0  0  0
    4.3740   14.8068   -0.9155 H   0  0  0  0  0  0  0  0  0  0  0  0
    3.5576   14.0290   -2.3138 H   0  0  0  0  0  0  0  0  0  0  0  0
    3.8444   15.8023   -2.3138 H   0  0  0  0  0  0  0  0  0  0  0  0
    0.3372   14.2611   -0.7393 H   0  0  0  0  0  0  0  0  0  0  0  0
    2.2631   12.6373   -0.1931 H   0  0  0  0  0  0  0  0  0  0  0  0
    0.6919   12.0356   -0.9401 H   0  0  0  0  0  0  0  0  0  0  0  0
    2.9126   10.9933   -1.9011 H   0  0  0  0  0  0  0  0  0  0  0  0
    2.3682   14.3235   -4.1157 H   0  0  0  0  0  0  0  0  0  0  0  0
    0.1689   12.3938   -5.0834 H   0  0  0  0  0  0  0  0  0  0  0  0
    0.4728   14.0876   -5.6738 H   0  0  0  0  0  0  0  0  0  0  0  0
    1.3341   12.3799   -7.2443 H   0  0  0  0  0  0  0  0  0  0  0  0
    2.6368   13.4254   -6.5539 H   0  0  0  0  0  0  0  0  0  0  0  0
    3.4035   11.1510   -6.5766 H   0  0  0  0  0  0  0  0  0  0  0  0
    0.8120   10.6880   -5.8920 H   0  0  0  0  0  0  0  0  0  0  0  0
    5.0031   12.8880   -3.7499 H   0  0  0  0  0  0  0  0  0  0  0  0
    5.3649   12.0332   -5.2878 H   0  0  0  0  0  0  0  0  0  0  0  0
    4.2703   13.4575   -5.2878 H   0  0  0  0  0  0  0  0  0  0  0  0
    3.9745   10.2440   -2.9196 H   0  0  0  0  0  0  0  0  0  0  0  0
    3.3331    9.4597   -4.4029 H   0  0  0  0  0  0  0  0  0  0  0  0
    4.9847   10.1660   -4.4029 H   0  0  0  0  0  0  0  0  0  0  0  0
   -1.0744   13.2614   -1.8944 H   0  0  0  0  0  0  0  0  0  0  0  0
   -1.4643   14.0713   -3.4496 H   0  0  0  0  0  0  0  0  0  0  0  0
   -0.6229   12.4842   -3.4496 H   0  0  0  0  0  0  0  0  0  0  0  0
    0.3803   15.7202   -4.3977 H   0  0  0  0  0  0  0  0  0  0  0  0
   -0.6000   15.9182   -2.8378 H   0  0  0  0  0  0  0  0  0  0  0  0
    2.3135   16.6191   -3.2919 H   0  0  0  0  0  0  0  0  0  0  0  0
    0.9252   17.7270   -2.9573 H   0  0  0  0  0  0  0  0  0  0  0  0
    0.3493   16.7842    0.5429 H   0  0  0  0  0  0  0  0  0  0  0  0
   -0.1957   17.7923   -0.8403 H   0  0  0  0  0  0  0  0  0  0  0  0
   -0.5078   16.0234   -0.8403 H   0  0  0  0  0  0  0  0  0  0  0  0
  1  2  1  0
  2  3  1  0
  3  4  1  0
  4  5  1  0
  5  6  1  0
  6  7  1  0
  7  8  1  0
  7  9  1  0
  2 10  1  0
 10 11  1  0
 11 12  1  0
 12 13  1  0
 13 14  1  6
 13 15  1  0
 15 16  1  0
 16 17  1  0
 17 18  2  0
 18 19  1  0
 19 20  1  0
 20 21  1  0
 21 22  1  0
 22 23  1  0
 22 24  1  0
 24 25  1  0
 24 26  1  0
 19 27  1  0
 27 28  1  1
 27 29  1  0
 29 30  1  0
 30 31  1  0
 31 32  1  1
  7  5  1  0
 31 10  1  0
 31 13  1  0
 27 15  1  0
 24 18  1  0
  1 33  1  0
  1 34  1  0
  1 35  1  0
  2 36  1  1
  3 37  1  0
  3 38  1  0
  4 39  1  0
  4 40  1  0
  5 41  1  1
  8 42  1  0
  8 43  1  0
  8 44  1  0
  9 45  1  0
  9 46  1  0
  9 47  1  0
 10 48  1  6
 11 49  1  0
 11 50  1  0
 12 51  1  0
 12 52  1  0
 14 53  1  0
 14 54  1  0
 14 55  1  0
 15 56  1  1
 16 57  1  0
 16 58  1  0
 17 59  1  0
 19 60  1  6
 20 61  1  0
 20 62  1  0
 21 63  1  0
 21 64  1  0
 22 65  1  6
 23 66  1  0
 25 67  1  0
 25 68  1  0
 25 69  1  0
 26 70  1  0
 26 71  1  0
 26 72  1  0
 28 73  1  0
 28 74  1  0
 28 75  1  0
 29 76  1  0
 29 77  1  0
 30 78  1  0
 30 79  1  0
 32 80  1  0
 32 81  1  0
 32 82  1  0
M  END
>  <meeko>  (19) 
{"is_sidechain": [false], "intermolecular_energy": 2.731, "internal_energy": -0.839}

$$$$
EPH_relaxed_0001_pdb2pqr_Repair_129_r2_0001_out
     RDKit          3D

 82 86  0  0  0  0  0  0  0  0999 V2000
   -2.3390    7.8190   -0.0690 C   0  0  0  0  0  0  0  0  0  0  0  0
   -3.0130    9.1940   -0.0650 C   0  0  2  0  0  0  0  0  0  0  0  0
   -4.5130    9.1060   -0.4150 C   0  0  0  0  0  0  0  0  0  0  0  0
   -5.0400    7.6720   -0.5090 C   0  0  0  0  0  0  0  0  0  0  0  0
   -5.7860    7.4380   -1.7870 C   0  0  2  0  0  0  0  0  0  0  0  0
   -6.7350    8.4600   -2.1220 O   0  0  0  0  0  0  0  0  0  0  0  0
   -7.2760    7.1570   -1.8470 C   0  0  0  0  0  0  0  0  0  0  0  0
   -8.1090    7.0940   -0.6060 C   0  0  0  0  0  0  0  0  0  0  0  0
   -7.8250    6.4660   -3.0560 C   0  0  0  0  0  0  0  0  0  0  0  0
   -2.3040   10.1230   -1.0430 C   0  0  1  0  0  0  0  0  0  0  0  0
   -2.9500   11.5330   -1.1040 C   0  0  0  0  0  0  0  0  0  0  0  0
   -1.7970   12.5440   -1.3290 C   0  0  0  0  0  0  0  0  0  0  0  0
   -0.5820   11.6700   -1.7200 C   0  0  1  0  0  0  0  0  0  0  0  0
   -0.7790   11.3650   -3.2380 C   0  0  0  0  0  0  0  0  0  0  0  0
    0.8290   12.2790   -1.4320 C   0  0  2  0  0  0  0  0  0  0  0  0
    1.1480   13.5750   -2.1970 C   0  0  0  0  0  0  0  0  0  0  0  0
    1.8100   13.3870   -3.5220 C   0  0  0  0  0  0  0  0  0  0  0  0
    2.3910   12.2510   -3.9520 C   0  0  0  0  0  0  0  0  0  0  0  0
    2.5080   11.0290   -3.0310 C   0  0  1  0  0  0  0  0  0  0  0  0
    3.9470   10.4560   -3.1110 C   0  0  0  0  0  0  0  0  0  0  0  0
    4.3770   10.1510   -4.5430 C   0  0  0  0  0  0  0  0  0  0  0  0
    4.3030   11.4030   -5.4130 C   0  0  2  0  0  0  0  0  0  0  0  0
    5.2870   12.3380   -4.9600 O   0  0  0  0  0  0  0  0  0  0  0  0
    2.9010   12.0750   -5.4030 C   0  0  0  0  0  0  0  0  0  0  0  0
    1.8910   11.1830   -6.1680 C   0  0  0  0  0  0  0  0  0  0  0  0
    3.0010   13.4010   -6.2040 C   0  0  0  0  0  0  0  0  0  0  0  0
    2.0170   11.2390   -1.5340 C   0  0  1  0  0  0  0  0  0  0  0  0
    3.1820   11.8080   -0.6670 C   0  0  0  0  0  0  0  0  0  0  0  0
    1.6430    9.8410   -0.9150 C   0  0  0  0  0  0  0  0  0  0  0  0
    0.2000    9.3480   -1.1320 C   0  0  0  0  0  0  0  0  0  0  0  0
   -0.8120   10.4390   -0.7690 C   0  0  2  0  0  0  0  0  0  0  0  0
   -0.6530   10.7510    0.7580 C   0  0  0  0  0  0  0  0  0  0  0  0
   -2.1764    7.4873    0.9671 H   0  0  0  0  0  0  0  0  0  0  0  0
   -2.9847    7.0957   -0.5885 H   0  0  0  0  0  0  0  0  0  0  0  0
   -1.3717    7.8863   -0.5885 H   0  0  0  0  0  0  0  0  0  0  0  0
   -2.9347    9.5983    0.9550 H   0  0  0  0  0  0  0  0  0  0  0  0
   -5.0828    9.6350    0.3632 H   0  0  0  0  0  0  0  0  0  0  0  0
   -4.6383    9.5602   -1.4090 H   0  0  0  0  0  0  0  0  0  0  0  0
   -4.1897    6.9759   -0.4601 H   0  0  0  0  0  0  0  0  0  0  0  0
   -5.7340    7.5064    0.3282 H   0  0  0  0  0  0  0  0  0  0  0  0
   -4.9197    6.9211   -2.2255 H   0  0  0  0  0  0  0  0  0  0  0  0
   -7.4553    7.1434    0.2773 H   0  0  0  0  0  0  0  0  0  0  0  0
   -8.8098    7.9417   -0.5914 H   0  0  0  0  0  0  0  0  0  0  0  0
   -8.6744    6.1505   -0.5914 H   0  0  0  0  0  0  0  0  0  0  0  0
   -8.4806    5.6409   -2.7407 H   0  0  0  0  0  0  0  0  0  0  0  0
   -8.4022    7.1834   -3.6579 H   0  0  0  0  0  0  0  0  0  0  0  0
   -6.9957    6.0660   -3.6579 H   0  0  0  0  0  0  0  0  0  0  0  0
   -2.4002    9.5290   -1.9638 H   0  0  0  0  0  0  0  0  0  0  0  0
   -3.6674   11.5853   -1.9363 H   0  0  0  0  0  0  0  0  0  0  0  0
   -3.4965   11.7574   -0.1761 H   0  0  0  0  0  0  0  0  0  0  0  0
   -2.0477   13.2450   -2.1388 H   0  0  0  0  0  0  0  0  0  0  0  0
   -1.6000   13.1571   -0.4372 H   0  0  0  0  0  0  0  0  0  0  0  0
   -1.3725   10.4461   -3.3533 H   0  0  0  0  0  0  0  0  0  0  0  0
   -1.3061   12.2043   -3.7152 H   0  0  0  0  0  0  0  0  0  0  0  0
    0.2028   11.2297   -3.7152 H   0  0  0  0  0  0  0  0  0  0  0  0
    0.7499   12.5689   -0.3738 H   0  0  0  0  0  0  0  0  0  0  0  0
    0.2031   14.1133   -2.3625 H   0  0  0  0  0  0  0  0  0  0  0  0
    1.8665   14.1274   -1.5735 H   0  0  0  0  0  0  0  0  0  0  0  0
    1.8243   14.2495   -4.2046 H   0  0  0  0  0  0  0  0  0  0  0  0
    1.7899   10.2894   -3.4149 H   0  0  0  0  0  0  0  0  0  0  0  0
    4.6437   11.1917   -2.6828 H   0  0  0  0  0  0  0  0  0  0  0  0
    3.9613    9.5101   -2.5496 H   0  0  0  0  0  0  0  0  0  0  0  0
    5.4117    9.7778   -4.5364 H   0  0  0  0  0  0  0  0  0  0  0  0
    3.6975    9.3931   -4.9598 H   0  0  0  0  0  0  0  0  0  0  0  0
    4.4955   11.0945   -6.4511 H   0  0  0  0  0  0  0  0  0  0  0  0
    5.6100   12.8250   -5.7370 H   0  0  0  0  0  0  0  0  0  0  0  0
    1.2682   10.6330   -5.4471 H   0  0  0  0  0  0  0  0  0  0  0  0
    1.2493   11.8146   -6.8000 H   0  0  0  0  0  0  0  0  0  0  0  0
    2.4384   10.4682   -6.8000 H   0  0  0  0  0  0  0  0  0  0  0  0
    3.0649   14.2478   -5.5048 H   0  0  0  0  0  0  0  0  0  0  0  0
    3.9001   13.3799   -6.8374 H   0  0  0  0  0  0  0  0  0  0  0  0
    2.1089   13.5149   -6.8374 H   0  0  0  0  0  0  0  0  0  0  0  0
    2.9379   11.6888    0.3989 H   0  0  0  0  0  0  0  0  0  0  0  0
    4.1090   11.2612   -0.8942 H   0  0  0  0  0  0  0  0  0  0  0  0
    3.3207   12.8753   -0.8942 H   0  0  0  0  0  0  0  0  0  0  0  0
    2.3197    9.0920   -1.3521 H   0  0  0  0  0  0  0  0  0  0  0  0
    1.7412    9.9727    0.1727 H   0  0  0  0  0  0  0  0  0  0  0  0
    0.0688    9.0726   -2.1889 H   0  0  0  0  0  0  0  0  0  0  0  0
    0.0253    8.4773   -0.4829 H   0  0  0  0  0  0  0  0  0  0  0  0
   -1.0748    9.9234    1.3472 H   0  0  0  0  0  0  0  0  0  0  0  0
    0.4139   10.8665    0.9995 H   0  0  0  0  0  0  0  0  0  0  0  0
   -1.1865   11.6822    0.9995 H   0  0  0  0  0  0  0  0  0  0  0  0
  1  2  1  0
  2  3  1  0
  3  4  1  0
  4  5  1  0
  5  6  1  0
  6  7  1  0
  7  8  1  0
  7  9  1  0
  2 10  1  0
 10 11  1  0
 11 12  1  0
 12 13  1  0
 13 14  1  6
 13 15  1  0
 15 16  1  0
 16 17  1  0
 17 18  2  0
 18 19  1  0
 19 20  1  0
 20 21  1  0
 21 22  1  0
 22 23  1  0
 22 24  1  0
 24 25  1  0
 24 26  1  0
 19 27  1  0
 27 28  1  1
 27 29  1  0
 29 30  1  0
 30 31  1  0
 31 32  1  1
  7  5  1  0
 31 10  1  0
 31 13  1  0
 27 15  1  0
 24 18  1  0
  1 33  1  0
  1 34  1  0
  1 35  1  0
  2 36  1  1
  3 37  1  0
  3 38  1  0
  4 39  1  0
  4 40  1  0
  5 41  1  6
  8 42  1  0
  8 43  1  0
  8 44  1  0
  9 45  1  0
  9 46  1  0
  9 47  1  0
 10 48  1  6
 11 49  1  0
 11 50  1  0
 12 51  1  0
 12 52  1  0
 14 53  1  0
 14 54  1  0
 14 55  1  0
 15 56  1  1
 16 57  1  0
 16 58  1  0
 17 59  1  0
 19 60  1  6
 20 61  1  0
 20 62  1  0
 21 63  1  0
 21 64  1  0
 22 65  1  6
 23 66  1  0
 25 67  1  0
 25 68  1  0
 25 69  1  0
 26 70  1  0
 26 71  1  0
 26 72  1  0
 28 73  1  0
 28 74  1  0
 28 75  1  0
 29 76  1  0
 29 77  1  0
 30 78  1  0
 30 79  1  0
 32 80  1  0
 32 81  1  0
 32 82  1  0
M  END
>  <meeko>  (20) 
{"is_sidechain": [false], "intermolecular_energy": 2.731, "internal_energy": -0.839}

$$$$
