EPH_relaxed_0001_pdb2pqr_Repair_231_r2_0001_out
     RDKit          3D

 82 86  0  0  0  0  0  0  0  0999 V2000
   -1.7190    8.5870   -1.8700 C   0  0  0  0  0  0  0  0  0  0  0  0
   -2.1010    9.1070   -0.4810 C   0  0  2  0  0  0  0  0  0  0  0  0
   -3.5960    9.4720   -0.3890 C   0  0  0  0  0  0  0  0  0  0  0  0
   -4.5160    8.2590   -0.2200 C   0  0  0  0  0  0  0  0  0  0  0  0
   -5.2140    7.9100   -1.5000 C   0  0  2  0  0  0  0  0  0  0  0  0
   -6.3510    8.7280   -1.8040 O   0  0  0  0  0  0  0  0  0  0  0  0
   -6.6170    7.3380   -1.5580 C   0  0  0  0  0  0  0  0  0  0  0  0
   -7.4070    7.0810   -0.3140 C   0  0  0  0  0  0  0  0  0  0  0  0
   -7.0300    6.5780   -2.7800 C   0  0  0  0  0  0  0  0  0  0  0  0
   -1.2470   10.3190   -0.1270 C   0  0  1  0  0  0  0  0  0  0  0  0
   -0.2260   10.0210    1.0040 C   0  0  0  0  0  0  0  0  0  0  0  0
    1.0460   10.8480    0.6880 C   0  0  0  0  0  0  0  0  0  0  0  0
    0.6030   11.8390   -0.4140 C   0  0  1  0  0  0  0  0  0  0  0  0
   -0.1130   12.9960    0.3510 C   0  0  0  0  0  0  0  0  0  0  0  0
    1.7320   12.3790   -1.3520 C   0  0  2  0  0  0  0  0  0  0  0  0
    2.8270   13.2000   -0.6490 C   0  0  0  0  0  0  0  0  0  0  0  0
    2.5730   14.6700   -0.5750 C   0  0  0  0  0  0  0  0  0  0  0  0
    1.6570   15.3430   -1.2960 C   0  0  0  0  0  0  0  0  0  0  0  0
    0.8230   14.6330   -2.3700 C   0  0  1  0  0  0  0  0  0  0  0  0
    0.8080   15.4890   -3.6640 C   0  0  0  0  0  0  0  0  0  0  0  0
    0.3400   16.9190   -3.4130 C   0  0  0  0  0  0  0  0  0  0  0  0
    1.2280   17.6110   -2.3820 C   0  0  2  0  0  0  0  0  0  0  0  0
    2.5360   17.7790   -2.9380 O   0  0  0  0  0  0  0  0  0  0  0  0
    1.3280   16.8340   -1.0390 C   0  0  0  0  0  0  0  0  0  0  0  0
   -0.0260   16.9120   -0.2910 C   0  0  0  0  0  0  0  0  0  0  0  0
    2.3630   17.5640   -0.1410 C   0  0  0  0  0  0  0  0  0  0  0  0
    1.2000   13.1140   -2.6490 C   0  0  1  0  0  0  0  0  0  0  0  0
    2.3440   13.0340   -3.7060 C   0  0  0  0  0  0  0  0  0  0  0  0
   -0.0420   12.3840   -3.2830 C   0  0  0  0  0  0  0  0  0  0  0  0
   -1.0600   11.7680   -2.3050 C   0  0  0  0  0  0  0  0  0  0  0  0
   -0.3560   10.9130   -1.2470 C   0  0  2  0  0  0  0  0  0  0  0  0
    0.3550    9.7280   -1.9850 C   0  0  0  0  0  0  0  0  0  0  0  0
   -1.0707    7.7045   -1.7656 H   0  0  0  0  0  0  0  0  0  0  0  0
   -2.6298    8.3098   -2.4210 H   0  0  0  0  0  0  0  0  0  0  0  0
   -1.1821    9.3732   -2.4210 H   0  0  0  0  0  0  0  0  0  0  0  0
   -1.9136    8.2966    0.2389 H   0  0  0  0  0  0  0  0  0  0  0  0
   -3.7383   10.1389    0.4741 H   0  0  0  0  0  0  0  0  0  0  0  0
   -3.8689    9.9528   -1.3399 H   0  0  0  0  0  0  0  0  0  0  0  0
   -3.9139    7.3973    0.1042 H   0  0  0  0  0  0  0  0  0  0  0  0
   -5.2804    8.5102    0.5300 H   0  0  0  0  0  0  0  0  0  0  0  0
   -4.2665    7.5877   -1.9564 H   0  0  0  0  0  0  0  0  0  0  0  0
   -6.7805    7.2848    0.5669 H   0  0  0  0  0  0  0  0  0  0  0  0
   -8.2886    7.7387   -0.2971 H   0  0  0  0  0  0  0  0  0  0  0  0
   -7.7329    6.0305   -0.2971 H   0  0  0  0  0  0  0  0  0  0  0  0
   -7.5353    5.6481   -2.4801 H   0  0  0  0  0  0  0  0  0  0  0  0
   -7.7182    7.1926   -3.3789 H   0  0  0  0  0  0  0  0  0  0  0  0
   -6.1399    6.3349   -3.3789 H   0  0  0  0  0  0  0  0  0  0  0  0
   -2.0409   11.0318    0.1405 H   0  0  0  0  0  0  0  0  0  0  0  0
   -0.6408   10.3213    1.9775 H   0  0  0  0  0  0  0  0  0  0  0  0
    0.0042    8.9466    1.0550 H   0  0  0  0  0  0  0  0  0  0  0  0
    1.3893   11.3893    1.5819 H   0  0  0  0  0  0  0  0  0  0  0  0
    1.8862   10.2149    0.3666 H   0  0  0  0  0  0  0  0  0  0  0  0
   -0.0137   12.8356    1.4347 H   0  0  0  0  0  0  0  0  0  0  0  0
    0.3488   13.9565    0.0787 H   0  0  0  0  0  0  0  0  0  0  0  0
   -1.1787   13.0113    0.0787 H   0  0  0  0  0  0  0  0  0  0  0  0
    2.2229   11.4538   -1.6883 H   0  0  0  0  0  0  0  0  0  0  0  0
    2.9297   12.8206    0.3784 H   0  0  0  0  0  0  0  0  0  0  0  0
    3.7361   13.0782   -1.2562 H   0  0  0  0  0  0  0  0  0  0  0  0
    3.1866   15.2520    0.1284 H   0  0  0  0  0  0  0  0  0  0  0  0
   -0.1953   14.5550   -1.9615 H   0  0  0  0  0  0  0  0  0  0  0  0
    1.8262   15.5188   -4.0791 H   0  0  0  0  0  0  0  0  0  0  0  0
    0.0992   15.0234   -4.3646 H   0  0  0  0  0  0  0  0  0  0  0  0
    0.3793   17.4816   -4.3574 H   0  0  0  0  0  0  0  0  0  0  0  0
   -0.6892   16.8886   -3.0258 H   0  0  0  0  0  0  0  0  0  0  0  0
    0.7671   18.5823   -2.1494 H   0  0  0  0  0  0  0  0  0  0  0  0
    2.7370   18.7310   -2.9350 H   0  0  0  0  0  0  0  0  0  0  0  0
    0.1535   16.9017    0.7942 H   0  0  0  0  0  0  0  0  0  0  0  0
   -0.5449   17.8415   -0.5680 H   0  0  0  0  0  0  0  0  0  0  0  0
   -0.6482   16.0482   -0.5680 H   0  0  0  0  0  0  0  0  0  0  0  0
    2.1172   17.3907    0.9171 H   0  0  0  0  0  0  0  0  0  0  0  0
    3.3702   17.1753   -0.3519 H   0  0  0  0  0  0  0  0  0  0  0  0
    2.3349   18.6432   -0.3519 H   0  0  0  0  0  0  0  0  0  0  0  0
    3.3141   12.9662   -3.1919 H   0  0  0  0  0  0  0  0  0  0  0  0
    2.1997   12.1438   -4.3358 H   0  0  0  0  0  0  0  0  0  0  0  0
    2.3250   13.9357   -4.3358 H   0  0  0  0  0  0  0  0  0  0  0  0
   -0.5782   13.1175   -3.9030 H   0  0  0  0  0  0  0  0  0  0  0  0
    0.3775   11.5310   -3.8365 H   0  0  0  0  0  0  0  0  0  0  0  0
   -1.6129   12.5766   -1.8045 H   0  0  0  0  0  0  0  0  0  0  0  0
   -1.7483   11.1256   -2.8738 H   0  0  0  0  0  0  0  0  0  0  0  0
    0.7728    9.0317   -1.2429 H   0  0  0  0  0  0  0  0  0  0  0  0
   -0.3744    9.1980   -2.6151 H   0  0  0  0  0  0  0  0  0  0  0  0
    1.1659   10.1222   -2.6151 H   0  0  0  0  0  0  0  0  0  0  0  0
  1  2  1  0
  2  3  1  0
  3  4  1  0
  4  5  1  0
  5  6  1  0
  6  7  1  0
  7  8  1  0
  7  9  1  0
  2 10  1  0
 10 11  1  0
 11 12  1  0
 12 13  1  0
 13 14  1  1
 13 15  1  0
 15 16  1  0
 16 17  1  0
 17 18  2  0
 18 19  1  0
 19 20  1  0
 20 21  1  0
 21 22  1  0
 22 23  1  0
 22 24  1  0
 24 25  1  0
 24 26  1  0
 19 27  1  0
 27 28  1  6
 27 29  1  0
 29 30  1  0
 30 31  1  0
 31 32  1  6
  7  5  1  0
 31 10  1  0
 31 13  1  0
 27 15  1  0
 24 18  1  0
  1 33  1  0
  1 34  1  0
  1 35  1  0
  2 36  1  1
  3 37  1  0
  3 38  1  0
  4 39  1  0
  4 40  1  0
  5 41  1  6
  8 42  1  0
  8 43  1  0
  8 44  1  0
  9 45  1  0
  9 46  1  0
  9 47  1  0
 10 48  1  1
 11 49  1  0
 11 50  1  0
 12 51  1  0
 12 52  1  0
 14 53  1  0
 14 54  1  0
 14 55  1  0
 15 56  1  6
 16 57  1  0
 16 58  1  0
 17 59  1  0
 19 60  1  1
 20 61  1  0
 20 62  1  0
 21 63  1  0
 21 64  1  0
 22 65  1  1
 23 66  1  0
 25 67  1  0
 25 68  1  0
 25 69  1  0
 26 70  1  0
 26 71  1  0
 26 72  1  0
 28 73  1  0
 28 74  1  0
 28 75  1  0
 29 76  1  0
 29 77  1  0
 30 78  1  0
 30 79  1  0
 32 80  1  0
 32 81  1  0
 32 82  1  0
M  END
>  <meeko>  (1) 
{"is_sidechain": [false], "intermolecular_energy": 2.731, "internal_energy": -0.839}

$$$$
EPH_relaxed_0001_pdb2pqr_Repair_231_r2_0001_out
     RDKit          3D

 82 86  0  0  0  0  0  0  0  0999 V2000
    4.2700   17.5380   -0.6720 C   0  0  0  0  0  0  0  0  0  0  0  0
    2.9130   18.1230   -0.2690 C   0  0  2  0  0  0  0  0  0  0  0  0
    2.9720   18.8440    1.0920 C   0  0  0  0  0  0  0  0  0  0  0  0
    4.2570   18.5690    1.8790 C   0  0  0  0  0  0  0  0  0  0  0  0
    4.2110   19.1820    3.2460 C   0  0  2  0  0  0  0  0  0  0  0  0
    5.2010   20.1930    3.4820 O   0  0  0  0  0  0  0  0  0  0  0  0
    5.3070   19.0030    4.2800 C   0  0  0  0  0  0  0  0  0  0  0  0
    6.5260   18.1830    3.9920 C   0  0  0  0  0  0  0  0  0  0  0  0
    4.9700   19.2140    5.7230 C   0  0  0  0  0  0  0  0  0  0  0  0
    1.8630   17.0190   -0.2300 C   0  0  1  0  0  0  0  0  0  0  0  0
    0.4310   17.5470   -0.5070 C   0  0  0  0  0  0  0  0  0  0  0  0
   -0.3130   16.4340   -1.2890 C   0  0  0  0  0  0  0  0  0  0  0  0
    0.5920   15.1880   -1.1490 C   0  0  1  0  0  0  0  0  0  0  0  0
    0.2510   14.6020    0.2570 C   0  0  0  0  0  0  0  0  0  0  0  0
    0.4600   14.1080   -2.2720 C   0  0  2  0  0  0  0  0  0  0  0  0
   -0.9250   13.4480   -2.3830 C   0  0  0  0  0  0  0  0  0  0  0  0
   -1.1110   12.2130   -1.5640 C   0  0  0  0  0  0  0  0  0  0  0  0
   -0.1240   11.4970   -0.9940 C   0  0  0  0  0  0  0  0  0  0  0  0
    1.3490   11.8560   -1.2320 C   0  0  1  0  0  0  0  0  0  0  0  0
    2.1480   10.5700   -1.5650 C   0  0  0  0  0  0  0  0  0  0  0  0
    1.9760    9.4830   -0.5080 C   0  0  0  0  0  0  0  0  0  0  0  0
    0.5050    9.1120   -0.3420 C   0  0  2  0  0  0  0  0  0  0  0  0
    0.0500    8.4840   -1.5440 O   0  0  0  0  0  0  0  0  0  0  0  0
   -0.4010   10.3310   -0.0130 C   0  0  0  0  0  0  0  0  0  0  0  0
   -0.1070   10.8250    1.4250 C   0  0  0  0  0  0  0  0  0  0  0  0
   -1.8750    9.8430   -0.0120 C   0  0  0  0  0  0  0  0  0  0  0  0
    1.6170   13.0280   -2.2710 C   0  0  1  0  0  0  0  0  0  0  0  0
    1.6870   12.4510   -3.7180 C   0  0  0  0  0  0  0  0  0  0  0  0
    3.0280   13.6630   -1.9780 C   0  0  0  0  0  0  0  0  0  0  0  0
    3.0740   14.8060   -0.9460 C   0  0  0  0  0  0  0  0  0  0  0  0
    2.0080   15.8630   -1.2510 C   0  0  2  0  0  0  0  0  0  0  0  0
    2.3380   16.4860   -2.6500 C   0  0  0  0  0  0  0  0  0  0  0  0
    4.8454   17.2899    0.2321 H   0  0  0  0  0  0  0  0  0  0  0  0
    4.1140   16.6272   -1.2687 H   0  0  0  0  0  0  0  0  0  0  0  0
    4.8251   18.2767   -1.2687 H   0  0  0  0  0  0  0  0  0  0  0  0
    2.6371   18.8718   -1.0260 H   0  0  0  0  0  0  0  0  0  0  0  0
    2.8983   19.9271    0.9147 H   0  0  0  0  0  0  0  0  0  0  0  0
    2.1366   18.4599    1.6959 H   0  0  0  0  0  0  0  0  0  0  0  0
    4.3874   17.4814    1.9801 H   0  0  0  0  0  0  0  0  0  0  0  0
    5.0982   19.0172    1.3300 H   0  0  0  0  0  0  0  0  0  0  0  0
    3.1204   19.0476    3.2959 H   0  0  0  0  0  0  0  0  0  0  0  0
    6.9901   17.8708    4.9392 H   0  0  0  0  0  0  0  0  0  0  0  0
    6.2405   17.2926    3.4126 H   0  0  0  0  0  0  0  0  0  0  0  0
    7.2431   18.7831    3.4126 H   0  0  0  0  0  0  0  0  0  0  0  0
    5.7349   18.7351    6.3520 H   0  0  0  0  0  0  0  0  0  0  0  0
    4.9404   20.2922    5.9387 H   0  0  0  0  0  0  0  0  0  0  0  0
    3.9871   18.7697    5.9387 H   0  0  0  0  0  0  0  0  0  0  0  0
    2.0292   16.6426    0.7901 H   0  0  0  0  0  0  0  0  0  0  0  0
   -0.0864   17.7541    0.4414 H   0  0  0  0  0  0  0  0  0  0  0  0
    0.4601   18.4830   -1.0841 H   0  0  0  0  0  0  0  0  0  0  0  0
   -1.3035   16.2460   -0.8491 H   0  0  0  0  0  0  0  0  0  0  0  0
   -0.4870   16.7075   -2.3402 H   0  0  0  0  0  0  0  0  0  0  0  0
    0.6407   15.2717    1.0377 H   0  0  0  0  0  0  0  0  0  0  0  0
   -0.8403   14.5124    0.3620 H   0  0  0  0  0  0  0  0  0  0  0  0
    0.7123   13.6089    0.3620 H   0  0  0  0  0  0  0  0  0  0  0  0
    0.5804   14.7043   -3.1885 H   0  0  0  0  0  0  0  0  0  0  0  0
   -1.6784   14.1835   -2.0647 H   0  0  0  0  0  0  0  0  0  0  0  0
   -1.0298   13.1356   -3.4325 H   0  0  0  0  0  0  0  0  0  0  0  0
   -2.1415   11.8587   -1.4140 H   0  0  0  0  0  0  0  0  0  0  0  0
    1.7137   12.2871   -0.2880 H   0  0  0  0  0  0  0  0  0  0  0  0
    1.7996   10.1792   -2.5324 H   0  0  0  0  0  0  0  0  0  0  0  0
    3.2142   10.8386   -1.5967 H   0  0  0  0  0  0  0  0  0  0  0  0
    2.5402    8.5899   -0.8148 H   0  0  0  0  0  0  0  0  0  0  0  0
    2.3526    9.8644    0.4526 H   0  0  0  0  0  0  0  0  0  0  0  0
    0.4319    8.4273    0.5159 H   0  0  0  0  0  0  0  0  0  0  0  0
    0.1990    9.1060   -2.2760 H   0  0  0  0  0  0  0  0  0  0  0  0
   -0.5299   10.1144    2.1504 H   0  0  0  0  0  0  0  0  0  0  0  0
    0.9807   10.8964    1.5730 H   0  0  0  0  0  0  0  0  0  0  0  0
   -0.5629   11.8151    1.5730 H   0  0  0  0  0  0  0  0  0  0  0  0
   -2.2224    9.7280    1.0253 H   0  0  0  0  0  0  0  0  0  0  0  0
   -2.5057   10.5803   -0.5303 H   0  0  0  0  0  0  0  0  0  0  0  0
   -1.9411    8.8750   -0.5303 H   0  0  0  0  0  0  0  0  0  0  0  0
    1.8194   11.3600   -3.6717 H   0  0  0  0  0  0  0  0  0  0  0  0
    0.7539   12.6848   -4.2515 H   0  0  0  0  0  0  0  0  0  0  0  0
    2.5371   12.9012   -4.2515 H   0  0  0  0  0  0  0  0  0  0  0  0
    3.6856   12.8596   -1.6145 H   0  0  0  0  0  0  0  0  0  0  0  0
    3.3411   14.1201   -2.9283 H   0  0  0  0  0  0  0  0  0  0  0  0
    2.8941   14.3925    0.0573 H   0  0  0  0  0  0  0  0  0  0  0  0
    4.0643   15.2824   -0.9940 H   0  0  0  0  0  0  0  0  0  0  0  0
    2.8487   17.4502   -2.5107 H   0  0  0  0  0  0  0  0  0  0  0  0
    2.9922   15.8022   -3.2108 H   0  0  0  0  0  0  0  0  0  0  0  0
    1.4048   16.6430   -3.2108 H   0  0  0  0  0  0  0  0  0  0  0  0
  1  2  1  0
  2  3  1  0
  3  4  1  0
  4  5  1  0
  5  6  1  0
  6  7  1  0
  7  8  1  0
  7  9  1  0
  2 10  1  0
 10 11  1  0
 11 12  1  0
 12 13  1  0
 13 14  1  1
 13 15  1  0
 15 16  1  0
 16 17  1  0
 17 18  2  0
 18 19  1  0
 19 20  1  0
 20 21  1  0
 21 22  1  0
 22 23  1  0
 22 24  1  0
 24 25  1  0
 24 26  1  0
 19 27  1  0
 27 28  1  6
 27 29  1  0
 29 30  1  0
 30 31  1  0
 31 32  1  6
  7  5  1  0
 31 10  1  0
 31 13  1  0
 27 15  1  0
 24 18  1  0
  1 33  1  0
  1 34  1  0
  1 35  1  0
  2 36  1  6
  3 37  1  0
  3 38  1  0
  4 39  1  0
  4 40  1  0
  5 41  1  1
  8 42  1  0
  8 43  1  0
  8 44  1  0
  9 45  1  0
  9 46  1  0
  9 47  1  0
 10 48  1  1
 11 49  1  0
 11 50  1  0
 12 51  1  0
 12 52  1  0
 14 53  1  0
 14 54  1  0
 14 55  1  0
 15 56  1  6
 16 57  1  0
 16 58  1  0
 17 59  1  0
 19 60  1  1
 20 61  1  0
 20 62  1  0
 21 63  1  0
 21 64  1  0
 22 65  1  1
 23 66  1  0
 25 67  1  0
 25 68  1  0
 25 69  1  0
 26 70  1  0
 26 71  1  0
 26 72  1  0
 28 73  1  0
 28 74  1  0
 28 75  1  0
 29 76  1  0
 29 77  1  0
 30 78  1  0
 30 79  1  0
 32 80  1  0
 32 81  1  0
 32 82  1  0
M  END
>  <meeko>  (2) 
{"is_sidechain": [false], "intermolecular_energy": 2.731, "internal_energy": -0.839}

$$$$
EPH_relaxed_0001_pdb2pqr_Repair_231_r2_0001_out
     RDKit          3D

 82 86  0  0  0  0  0  0  0  0999 V2000
    2.2810   18.0930   -2.7340 C   0  0  0  0  0  0  0  0  0  0  0  0
    1.0170   17.6770   -1.9760 C   0  0  2  0  0  0  0  0  0  0  0  0
    1.2130   17.7300   -0.4470 C   0  0  0  0  0  0  0  0  0  0  0  0
    0.9010   19.0980    0.1660 C   0  0  0  0  0  0  0  0  0  0  0  0
   -0.5300   19.1990    0.5980 C   0  0  2  0  0  0  0  0  0  0  0  0
   -1.4150   18.2700   -0.0410 O   0  0  0  0  0  0  0  0  0  0  0  0
   -1.6500   19.6600   -0.3170 C   0  0  0  0  0  0  0  0  0  0  0  0
   -1.3850   20.0520   -1.7370 C   0  0  0  0  0  0  0  0  0  0  0  0
   -2.9040   20.1940    0.3010 C   0  0  0  0  0  0  0  0  0  0  0  0
    0.5950   16.2750   -2.3980 C   0  0  1  0  0  0  0  0  0  0  0  0
    0.7360   16.0440   -3.9270 C   0  0  0  0  0  0  0  0  0  0  0  0
    1.1570   14.5650   -4.1190 C   0  0  0  0  0  0  0  0  0  0  0  0
    0.9230   13.9100   -2.7370 C   0  0  1  0  0  0  0  0  0  0  0  0
   -0.6070   13.6010   -2.6930 C   0  0  0  0  0  0  0  0  0  0  0  0
    1.7780   12.6400   -2.4200 C   0  0  2  0  0  0  0  0  0  0  0  0
    1.5340   11.4400   -3.3520 C   0  0  0  0  0  0  0  0  0  0  0  0
    0.4710   10.4920   -2.9050 C   0  0  0  0  0  0  0  0  0  0  0  0
   -0.0600   10.4380   -1.6700 C   0  0  0  0  0  0  0  0  0  0  0  0
    0.4760   11.3290   -0.5420 C   0  0  1  0  0  0  0  0  0  0  0  0
    0.6760   10.4780    0.7390 C   0  0  0  0  0  0  0  0  0  0  0  0
   -0.5860    9.7220    1.1430 C   0  0  0  0  0  0  0  0  0  0  0  0
   -1.0550    8.8040    0.0180 C   0  0  2  0  0  0  0  0  0  0  0  0
   -0.0870    7.7660   -0.1640 O   0  0  0  0  0  0  0  0  0  0  0  0
   -1.2810    9.5490   -1.3270 C   0  0  0  0  0  0  0  0  0  0  0  0
   -2.5290   10.4600   -1.2150 C   0  0  0  0  0  0  0  0  0  0  0  0
   -1.6140    8.4880   -2.4110 C   0  0  0  0  0  0  0  0  0  0  0  0
    1.7530   12.2050   -0.8990 C   0  0  1  0  0  0  0  0  0  0  0  0
    3.0520   11.3780   -0.6510 C   0  0  0  0  0  0  0  0  0  0  0  0
    1.8190   13.4390    0.0780 C   0  0  0  0  0  0  0  0  0  0  0  0
    1.0510   14.7040   -0.3490 C   0  0  0  0  0  0  0  0  0  0  0  0
    1.3810   15.0840   -1.7960 C   0  0  2  0  0  0  0  0  0  0  0  0
    2.9090   15.4220   -1.8660 C   0  0  0  0  0  0  0  0  0  0  0  0
    3.0712   18.3531   -2.0143 H   0  0  0  0  0  0  0  0  0  0  0  0
    2.6206   17.2592   -3.3661 H   0  0  0  0  0  0  0  0  0  0  0  0
    2.0591   18.9655   -3.3661 H   0  0  0  0  0  0  0  0  0  0  0  0
    0.2256   18.3965   -2.2330 H   0  0  0  0  0  0  0  0  0  0  0  0
    0.5500   16.9833    0.0143 H   0  0  0  0  0  0  0  0  0  0  0  0
    2.2759   17.5248   -0.2516 H   0  0  0  0  0  0  0  0  0  0  0  0
    1.5492   19.2525    1.0412 H   0  0  0  0  0  0  0  0  0  0  0  0
    1.0827   19.8662   -0.6001 H   0  0  0  0  0  0  0  0  0  0  0  0
   -0.2275   19.5103    1.6087 H   0  0  0  0  0  0  0  0  0  0  0  0
   -0.7690   20.9632   -1.7570 H   0  0  0  0  0  0  0  0  0  0  0  0
   -0.8515   19.2375   -2.2488 H   0  0  0  0  0  0  0  0  0  0  0  0
   -2.3397   20.2435   -2.2488 H   0  0  0  0  0  0  0  0  0  0  0  0
   -2.8172   20.1570    1.3969 H   0  0  0  0  0  0  0  0  0  0  0  0
   -3.0564   21.2351   -0.0198 H   0  0  0  0  0  0  0  0  0  0  0  0
   -3.7602   19.5824   -0.0198 H   0  0  0  0  0  0  0  0  0  0  0  0
   -0.4385   16.2722   -2.0213 H   0  0  0  0  0  0  0  0  0  0  0  0
   -0.2246   16.2326   -4.4287 H   0  0  0  0  0  0  0  0  0  0  0  0
    1.4809   16.7263   -4.3624 H   0  0  0  0  0  0  0  0  0  0  0  0
    0.5367   14.0814   -4.8880 H   0  0  0  0  0  0  0  0  0  0  0  0
    2.1999   14.4684   -4.4552 H   0  0  0  0  0  0  0  0  0  0  0  0
   -0.9376   13.5342   -1.6460 H   0  0  0  0  0  0  0  0  0  0  0  0
   -1.1584   14.4059   -3.2010 H   0  0  0  0  0  0  0  0  0  0  0  0
   -0.8028   12.6452   -3.2010 H   0  0  0  0  0  0  0  0  0  0  0  0
    2.8002   12.9836   -2.6368 H   0  0  0  0  0  0  0  0  0  0  0  0
    1.2485   11.8296   -4.3403 H   0  0  0  0  0  0  0  0  0  0  0  0
    2.4715   10.8647   -3.3597 H   0  0  0  0  0  0  0  0  0  0  0  0
    0.0894    9.7768   -3.6486 H   0  0  0  0  0  0  0  0  0  0  0  0
   -0.2949   12.0935   -0.3650 H   0  0  0  0  0  0  0  0  0  0  0  0
    1.4799    9.7497    0.5564 H   0  0  0  0  0  0  0  0  0  0  0  0
    0.9303   11.1651    1.5595 H   0  0  0  0  0  0  0  0  0  0  0  0
   -0.3727    9.1167    2.0364 H   0  0  0  0  0  0  0  0  0  0  0  0
   -1.3806   10.4527    1.3545 H   0  0  0  0  0  0  0  0  0  0  0  0
   -2.0301    8.3904    0.3150 H   0  0  0  0  0  0  0  0  0  0  0  0
   -0.5470    6.9990   -0.5460 H   0  0  0  0  0  0  0  0  0  0  0  0
   -2.7638   10.6314   -0.1541 H   0  0  0  0  0  0  0  0  0  0  0  0
   -2.3251   11.4232   -1.7057 H   0  0  0  0  0  0  0  0  0  0  0  0
   -3.3842    9.9723   -1.7057 H   0  0  0  0  0  0  0  0  0  0  0  0
   -1.9094    7.5468   -1.9243 H   0  0  0  0  0  0  0  0  0  0  0  0
   -2.4412    8.8518   -3.0383 H   0  0  0  0  0  0  0  0  0  0  0  0
   -0.7273    8.3139   -3.0383 H   0  0  0  0  0  0  0  0  0  0  0  0
    3.2183   11.2721    0.4312 H   0  0  0  0  0  0  0  0  0  0  0  0
    2.9446   10.3817   -1.1046 H   0  0  0  0  0  0  0  0  0  0  0  0
    3.9093   11.8969   -1.1046 H   0  0  0  0  0  0  0  0  0  0  0  0
    1.4156   13.1166    1.0492 H   0  0  0  0  0  0  0  0  0  0  0  0
    2.8778   13.7368    0.0949 H   0  0  0  0  0  0  0  0  0  0  0  0
   -0.0293   14.5149   -0.2641 H   0  0  0  0  0  0  0  0  0  0  0  0
    1.3496   15.5340    0.3082 H   0  0  0  0  0  0  0  0  0  0  0  0
    3.3119   15.5111   -0.8463 H   0  0  0  0  0  0  0  0  0  0  0  0
    3.4380   14.6192   -2.4004 H   0  0  0  0  0  0  0  0  0  0  0  0
    3.0500   16.3731   -2.4004 H   0  0  0  0  0  0  0  0  0  0  0  0
  1  2  1  0
  2  3  1  0
  3  4  1  0
  4  5  1  0
  5  6  1  0
  6  7  1  0
  7  8  1  0
  7  9  1  0
  2 10  1  0
 10 11  1  0
 11 12  1  0
 12 13  1  0
 13 14  1  1
 13 15  1  0
 15 16  1  0
 16 17  1  0
 17 18  2  0
 18 19  1  0
 19 20  1  0
 20 21  1  0
 21 22  1  0
 22 23  1  0
 22 24  1  0
 24 25  1  0
 24 26  1  0
 19 27  1  0
 27 28  1  1
 27 29  1  0
 29 30  1  0
 30 31  1  0
 31 32  1  1
  7  5  1  0
 31 10  1  0
 31 13  1  0
 27 15  1  0
 24 18  1  0
  1 33  1  0
  1 34  1  0
  1 35  1  0
  2 36  1  1
  3 37  1  0
  3 38  1  0
  4 39  1  0
  4 40  1  0
  5 41  1  1
  8 42  1  0
  8 43  1  0
  8 44  1  0
  9 45  1  0
  9 46  1  0
  9 47  1  0
 10 48  1  1
 11 49  1  0
 11 50  1  0
 12 51  1  0
 12 52  1  0
 14 53  1  0
 14 54  1  0
 14 55  1  0
 15 56  1  6
 16 57  1  0
 16 58  1  0
 17 59  1  0
 19 60  1  1
 20 61  1  0
 20 62  1  0
 21 63  1  0
 21 64  1  0
 22 65  1  1
 23 66  1  0
 25 67  1  0
 25 68  1  0
 25 69  1  0
 26 70  1  0
 26 71  1  0
 26 72  1  0
 28 73  1  0
 28 74  1  0
 28 75  1  0
 29 76  1  0
 29 77  1  0
 30 78  1  0
 30 79  1  0
 32 80  1  0
 32 81  1  0
 32 82  1  0
M  END
>  <meeko>  (3) 
{"is_sidechain": [false], "intermolecular_energy": 2.731, "internal_energy": -0.839}

$$$$
EPH_relaxed_0001_pdb2pqr_Repair_231_r2_0001_out
     RDKit          3D

 82 86  0  0  0  0  0  0  0  0999 V2000
    0.3670   18.4300   -0.0440 C   0  0  0  0  0  0  0  0  0  0  0  0
    1.4620   17.3810   -0.2560 C   0  0  2  0  0  0  0  0  0  0  0  0
    2.6740   17.9530   -1.0180 C   0  0  0  0  0  0  0  0  0  0  0  0
    3.9110   18.1630   -0.1410 C   0  0  0  0  0  0  0  0  0  0  0  0
    3.5430   18.6480    1.2290 C   0  0  2  0  0  0  0  0  0  0  0  0
    3.8070   20.0370    1.4630 O   0  0  0  0  0  0  0  0  0  0  0  0
    4.5610   19.1060    2.2560 C   0  0  0  0  0  0  0  0  0  0  0  0
    6.0280   19.1000    1.9570 C   0  0  0  0  0  0  0  0  0  0  0  0
    4.1740   19.0940    3.7020 C   0  0  0  0  0  0  0  0  0  0  0  0
    0.8950   16.1810   -1.0040 C   0  0  1  0  0  0  0  0  0  0  0  0
    0.7700   16.4330   -2.5300 C   0  0  0  0  0  0  0  0  0  0  0  0
    1.0660   15.0820   -3.2320 C   0  0  0  0  0  0  0  0  0  0  0  0
    1.0230   14.0340   -2.0950 C   0  0  1  0  0  0  0  0  0  0  0  0
   -0.4940   13.7350   -1.8830 C   0  0  0  0  0  0  0  0  0  0  0  0
    1.8420   12.7240   -2.3320 C   0  0  2  0  0  0  0  0  0  0  0  0
    1.3790   11.8720   -3.5270 C   0  0  0  0  0  0  0  0  0  0  0  0
    0.3490   10.8380   -3.2120 C   0  0  0  0  0  0  0  0  0  0  0  0
    0.0240   10.4080   -1.9790 C   0  0  0  0  0  0  0  0  0  0  0  0
    0.7890   10.9040   -0.7450 C   0  0  1  0  0  0  0  0  0  0  0  0
    1.1460    9.6970    0.1630 C   0  0  0  0  0  0  0  0  0  0  0  0
   -0.0760    8.8610    0.5310 C   0  0  0  0  0  0  0  0  0  0  0  0
   -0.7760    8.3380   -0.7210 C   0  0  2  0  0  0  0  0  0  0  0  0
    0.0860    7.4010   -1.3740 O   0  0  0  0  0  0  0  0  0  0  0  0
   -1.1750    9.4640   -1.7160 C   0  0  0  0  0  0  0  0  0  0  0  0
   -2.3310   10.3020   -1.1170 C   0  0  0  0  0  0  0  0  0  0  0  0
   -1.7420    8.7920   -2.9950 C   0  0  0  0  0  0  0  0  0  0  0  0
    2.0410   11.8400   -1.0350 C   0  0  1  0  0  0  0  0  0  0  0  0
    3.3110   10.9700   -1.2790 C   0  0  0  0  0  0  0  0  0  0  0  0
    2.3380   12.7110    0.2430 C   0  0  0  0  0  0  0  0  0  0  0  0
    1.5870   14.0510    0.3600 C   0  0  0  0  0  0  0  0  0  0  0  0
    1.6970   14.8570   -0.9370 C   0  0  2  0  0  0  0  0  0  0  0  0
    3.2100   15.1920   -1.1660 C   0  0  0  0  0  0  0  0  0  0  0  0
    0.2085   18.5819    1.0339 H   0  0  0  0  0  0  0  0  0  0  0  0
    0.6742   19.3794   -0.5068 H   0  0  0  0  0  0  0  0  0  0  0  0
   -0.5684   18.0823   -0.5068 H   0  0  0  0  0  0  0  0  0  0  0  0
    1.8152   17.0662    0.7370 H   0  0  0  0  0  0  0  0  0  0  0  0
    2.9364   17.2550   -1.8266 H   0  0  0  0  0  0  0  0  0  0  0  0
    2.3773   18.9424   -1.3963 H   0  0  0  0  0  0  0  0  0  0  0  0
    4.4489   17.2079   -0.0486 H   0  0  0  0  0  0  0  0  0  0  0  0
    4.5434   18.9269   -0.6170 H   0  0  0  0  0  0  0  0  0  0  0  0
    2.7104   17.9313    1.2846 H   0  0  0  0  0  0  0  0  0  0  0  0
    6.5944   19.0977    2.9000 H   0  0  0  0  0  0  0  0  0  0  0  0
    6.2800   18.2008    1.3757 H   0  0  0  0  0  0  0  0  0  0  0  0
    6.2874   19.9971    1.3757 H   0  0  0  0  0  0  0  0  0  0  0  0
    5.0805   19.1221    4.3244 H   0  0  0  0  0  0  0  0  0  0  0  0
    3.5507   19.9732    3.9221 H   0  0  0  0  0  0  0  0  0  0  0  0
    3.6064   18.1778    3.9221 H   0  0  0  0  0  0  0  0  0  0  0  0
   -0.0617   16.0680   -0.4729 H   0  0  0  0  0  0  0  0  0  0  0  0
   -0.2469   16.7729   -2.7758 H   0  0  0  0  0  0  0  0  0  0  0  0
    1.4724   17.2123   -2.8606 H   0  0  0  0  0  0  0  0  0  0  0  0
    0.3007   14.8630   -3.9912 H   0  0  0  0  0  0  0  0  0  0  0  0
    2.0322   15.0879   -3.7577 H   0  0  0  0  0  0  0  0  0  0  0  0
   -0.7122   13.6920   -0.8057 H   0  0  0  0  0  0  0  0  0  0  0  0
   -1.0932   14.5323   -2.3469 H   0  0  0  0  0  0  0  0  0  0  0  0
   -0.7458   12.7699   -2.3469 H   0  0  0  0  0  0  0  0  0  0  0  0
    2.8332   13.1128   -2.6083 H   0  0  0  0  0  0  0  0  0  0  0  0
    0.9596   12.5496   -4.2853 H   0  0  0  0  0  0  0  0  0  0  0  0
    2.2673   11.3218   -3.8708 H   0  0  0  0  0  0  0  0  0  0  0  0
   -0.1899   10.3897   -4.0597 H   0  0  0  0  0  0  0  0  0  0  0  0
    0.1033   11.5809   -0.2143 H   0  0  0  0  0  0  0  0  0  0  0  0
    1.8648    9.0561   -0.3686 H   0  0  0  0  0  0  0  0  0  0  0  0
    1.5718   10.0950    1.0959 H   0  0  0  0  0  0  0  0  0  0  0  0
    0.2437    8.0080    1.1476 H   0  0  0  0  0  0  0  0  0  0  0  0
   -0.7808    9.4955    1.0883 H   0  0  0  0  0  0  0  0  0  0  0  0
   -1.7122    7.8584   -0.3993 H   0  0  0  0  0  0  0  0  0  0  0  0
   -0.3860    7.0600   -2.1520 H   0  0  0  0  0  0  0  0  0  0  0  0
   -2.2799   10.2650   -0.0188 H   0  0  0  0  0  0  0  0  0  0  0  0
   -2.2400   11.3454   -1.4533 H   0  0  0  0  0  0  0  0  0  0  0  0
   -3.2943    9.8910   -1.4533 H   0  0  0  0  0  0  0  0  0  0  0  0
   -2.4271    7.9801   -2.7096 H   0  0  0  0  0  0  0  0  0  0  0  0
   -2.2868    9.5390   -3.5909 H   0  0  0  0  0  0  0  0  0  0  0  0
   -0.9139    8.3806   -3.5909 H   0  0  0  0  0  0  0  0  0  0  0  0
    3.7437   10.6736   -0.3121 H   0  0  0  0  0  0  0  0  0  0  0  0
    3.0352   10.0703   -1.8486 H   0  0  0  0  0  0  0  0  0  0  0  0
    4.0504   11.5522   -1.8486 H   0  0  0  0  0  0  0  0  0  0  0  0
    2.0797   12.1066    1.1250 H   0  0  0  0  0  0  0  0  0  0  0  0
    3.4011   12.9826    0.1656 H   0  0  0  0  0  0  0  0  0  0  0  0
    0.5259   13.8514    0.5705 H   0  0  0  0  0  0  0  0  0  0  0  0
    2.0385   14.6356    1.1751 H   0  0  0  0  0  0  0  0  0  0  0  0
    3.7122   15.3032   -0.1937 H   0  0  0  0  0  0  0  0  0  0  0  0
    3.6843   14.3771   -1.7326 H   0  0  0  0  0  0  0  0  0  0  0  0
    3.2960   16.1309   -1.7326 H   0  0  0  0  0  0  0  0  0  0  0  0
  1  2  1  0
  2  3  1  0
  3  4  1  0
  4  5  1  0
  5  6  1  0
  6  7  1  0
  7  8  1  0
  7  9  1  0
  2 10  1  0
 10 11  1  0
 11 12  1  0
 12 13  1  0
 13 14  1  1
 13 15  1  0
 15 16  1  0
 16 17  1  0
 17 18  2  0
 18 19  1  0
 19 20  1  0
 20 21  1  0
 21 22  1  0
 22 23  1  0
 22 24  1  0
 24 25  1  0
 24 26  1  0
 19 27  1  0
 27 28  1  6
 27 29  1  0
 29 30  1  0
 30 31  1  0
 31 32  1  6
  7  5  1  0
 31 10  1  0
 31 13  1  0
 27 15  1  0
 24 18  1  0
  1 33  1  0
  1 34  1  0
  1 35  1  0
  2 36  1  1
  3 37  1  0
  3 38  1  0
  4 39  1  0
  4 40  1  0
  5 41  1  1
  8 42  1  0
  8 43  1  0
  8 44  1  0
  9 45  1  0
  9 46  1  0
  9 47  1  0
 10 48  1  1
 11 49  1  0
 11 50  1  0
 12 51  1  0
 12 52  1  0
 14 53  1  0
 14 54  1  0
 14 55  1  0
 15 56  1  6
 16 57  1  0
 16 58  1  0
 17 59  1  0
 19 60  1  1
 20 61  1  0
 20 62  1  0
 21 63  1  0
 21 64  1  0
 22 65  1  1
 23 66  1  0
 25 67  1  0
 25 68  1  0
 25 69  1  0
 26 70  1  0
 26 71  1  0
 26 72  1  0
 28 73  1  0
 28 74  1  0
 28 75  1  0
 29 76  1  0
 29 77  1  0
 30 78  1  0
 30 79  1  0
 32 80  1  0
 32 81  1  0
 32 82  1  0
M  END
>  <meeko>  (4) 
{"is_sidechain": [false], "intermolecular_energy": 2.731, "internal_energy": -0.839}

$$$$
EPH_relaxed_0001_pdb2pqr_Repair_231_r2_0001_out
     RDKit          3D

 82 86  0  0  0  0  0  0  0  0999 V2000
    2.2370   17.9460   -2.4720 C   0  0  0  0  0  0  0  0  0  0  0  0
    0.7210   17.8280   -2.6480 C   0  0  2  0  0  0  0  0  0  0  0  0
   -0.0490   18.3380   -1.4140 C   0  0  0  0  0  0  0  0  0  0  0  0
    0.5880   17.9360   -0.0810 C   0  0  0  0  0  0  0  0  0  0  0  0
    1.1370   19.1230    0.6520 C   0  0  2  0  0  0  0  0  0  0  0  0
    2.0410   19.9320   -0.1110 O   0  0  0  0  0  0  0  0  0  0  0  0
    2.5980   19.2670    1.0350 C   0  0  0  0  0  0  0  0  0  0  0  0
    3.6010   18.2100    0.6970 C   0  0  0  0  0  0  0  0  0  0  0  0
    2.9550   20.1940    2.1550 C   0  0  0  0  0  0  0  0  0  0  0  0
    0.3430   16.3790   -2.9360 C   0  0  1  0  0  0  0  0  0  0  0  0
    0.4150   16.0310   -4.4460 C   0  0  0  0  0  0  0  0  0  0  0  0
    0.8940   14.5600   -4.5440 C   0  0  0  0  0  0  0  0  0  0  0  0
    0.7620   14.0110   -3.1040 C   0  0  1  0  0  0  0  0  0  0  0  0
   -0.7470   13.6420   -2.9520 C   0  0  0  0  0  0  0  0  0  0  0  0
    1.6900   12.8080   -2.7360 C   0  0  2  0  0  0  0  0  0  0  0  0
    1.4540   11.5270   -3.5560 C   0  0  0  0  0  0  0  0  0  0  0  0
    0.4610   10.5740   -2.9780 C   0  0  0  0  0  0  0  0  0  0  0  0
   -0.0030   10.5980   -1.7150 C   0  0  0  0  0  0  0  0  0  0  0  0
    0.5490   11.5990   -0.6920 C   0  0  1  0  0  0  0  0  0  0  0  0
    0.8540   10.8640    0.6390 C   0  0  0  0  0  0  0  0  0  0  0  0
   -0.3490   10.0910    1.1700 C   0  0  0  0  0  0  0  0  0  0  0  0
   -0.8330    9.0660    0.1480 C   0  0  2  0  0  0  0  0  0  0  0  0
    0.1710    8.0580   -0.0040 O   0  0  0  0  0  0  0  0  0  0  0  0
   -1.1630    9.6900   -1.2370 C   0  0  0  0  0  0  0  0  0  0  0  0
   -2.4440   10.5530   -1.1270 C   0  0  0  0  0  0  0  0  0  0  0  0
   -1.5020    8.5310   -2.2130 C   0  0  0  0  0  0  0  0  0  0  0  0
    1.7640   12.4970   -1.1860 C   0  0  1  0  0  0  0  0  0  0  0  0
    3.1100   11.7480   -0.9460 C   0  0  0  0  0  0  0  0  0  0  0  0
    1.8230   13.8070   -0.3150 C   0  0  0  0  0  0  0  0  0  0  0  0
    0.9770   15.0000   -0.7970 C   0  0  0  0  0  0  0  0  0  0  0  0
    1.2130   15.2750   -2.2850 C   0  0  2  0  0  0  0  0  0  0  0  0
    2.7180   15.6700   -2.4660 C   0  0  0  0  0  0  0  0  0  0  0  0
    2.4813   17.9650   -1.3996 H   0  0  0  0  0  0  0  0  0  0  0  0
    2.7293   17.0835   -2.9449 H   0  0  0  0  0  0  0  0  0  0  0  0
    2.5899   18.8743   -2.9449 H   0  0  0  0  0  0  0  0  0  0  0  0
    0.4363   18.4634   -3.4996 H   0  0  0  0  0  0  0  0  0  0  0  0
   -0.0920   19.4362   -1.4610 H   0  0  0  0  0  0  0  0  0  0  0  0
   -1.0472   17.8769   -1.4450 H   0  0  0  0  0  0  0  0  0  0  0  0
   -0.1743   17.4510    0.5464 H   0  0  0  0  0  0  0  0  0  0  0  0
    1.4204   17.2487   -0.2924 H   0  0  0  0  0  0  0  0  0  0  0  0
    0.2086   19.2231    1.2335 H   0  0  0  0  0  0  0  0  0  0  0  0
    4.0082   17.7809    1.6244 H   0  0  0  0  0  0  0  0  0  0  0  0
    3.1147   17.4177    0.1090 H   0  0  0  0  0  0  0  0  0  0  0  0
    4.4177   18.6541    0.1090 H   0  0  0  0  0  0  0  0  0  0  0  0
    2.7636   19.6970    3.1175 H   0  0  0  0  0  0  0  0  0  0  0  0
    4.0200   20.4603    2.0852 H   0  0  0  0  0  0  0  0  0  0  0  0
    2.3437   21.1058    2.0852 H   0  0  0  0  0  0  0  0  0  0  0  0
   -0.6690   16.3634   -2.5053 H   0  0  0  0  0  0  0  0  0  0  0  0
   -0.5781   16.1374   -4.9070 H   0  0  0  0  0  0  0  0  0  0  0  0
    1.1038   16.7065   -4.9744 H   0  0  0  0  0  0  0  0  0  0  0  0
    0.2580   13.9897   -5.2370 H   0  0  0  0  0  0  0  0  0  0  0  0
    1.9214   14.4802   -4.9288 H   0  0  0  0  0  0  0  0  0  0  0  0
   -1.0034   13.5793   -1.8841 H   0  0  0  0  0  0  0  0  0  0  0  0
   -1.3639   14.4158   -3.4324 H   0  0  0  0  0  0  0  0  0  0  0  0
   -0.9372   12.6709   -3.4324 H   0  0  0  0  0  0  0  0  0  0  0  0
    2.6826   13.1755   -3.0354 H   0  0  0  0  0  0  0  0  0  0  0  0
    1.0998   11.8230   -4.5545 H   0  0  0  0  0  0  0  0  0  0  0  0
    2.4157   10.9932   -3.5701 H   0  0  0  0  0  0  0  0  0  0  0  0
    0.0758    9.7851   -3.6408 H   0  0  0  0  0  0  0  0  0  0  0  0
   -0.2465   12.3421   -0.5341 H   0  0  0  0  0  0  0  0  0  0  0  0
    1.6803   10.1578    0.4704 H   0  0  0  0  0  0  0  0  0  0  0  0
    1.1182   11.6254    1.3876 H   0  0  0  0  0  0  0  0  0  0  0  0
   -0.0620    9.5693    2.0949 H   0  0  0  0  0  0  0  0  0  0  0  0
   -1.1645   10.8025    1.3670 H   0  0  0  0  0  0  0  0  0  0  0  0
   -1.7715    8.6372    0.5292 H   0  0  0  0  0  0  0  0  0  0  0  0
    0.2420    7.8550   -0.9520 H   0  0  0  0  0  0  0  0  0  0  0  0
   -2.6862   10.7162   -0.0665 H   0  0  0  0  0  0  0  0  0  0  0  0
   -2.2761   11.5228   -1.6182 H   0  0  0  0  0  0  0  0  0  0  0  0
   -3.2797   10.0331   -1.6182 H   0  0  0  0  0  0  0  0  0  0  0  0
   -1.7651    7.6316   -1.6369 H   0  0  0  0  0  0  0  0  0  0  0  0
   -2.3526    8.8223   -2.8468 H   0  0  0  0  0  0  0  0  0  0  0  0
   -0.6285    8.3180   -2.8468 H   0  0  0  0  0  0  0  0  0  0  0  0
    3.2871   11.6495    0.1352 H   0  0  0  0  0  0  0  0  0  0  0  0
    3.0596   10.7482   -1.4019 H   0  0  0  0  0  0  0  0  0  0  0  0
    3.9331   12.3178   -1.4019 H   0  0  0  0  0  0  0  0  0  0  0  0
    1.4852   13.5477    0.6993 H   0  0  0  0  0  0  0  0  0  0  0  0
    2.8664   14.1491   -0.3801 H   0  0  0  0  0  0  0  0  0  0  0  0
   -0.0876   14.7737   -0.6375 H   0  0  0  0  0  0  0  0  0  0  0  0
    1.2715   15.8922   -0.2249 H   0  0  0  0  0  0  0  0  0  0  0  0
    3.1862   15.7929   -1.4782 H   0  0  0  0  0  0  0  0  0  0  0  0
    3.2403   14.8785   -3.0234 H   0  0  0  0  0  0  0  0  0  0  0  0
    2.7843   16.6160   -3.0234 H   0  0  0  0  0  0  0  0  0  0  0  0
  1  2  1  0
  2  3  1  0
  3  4  1  0
  4  5  1  0
  5  6  1  0
  6  7  1  0
  7  8  1  0
  7  9  1  0
  2 10  1  0
 10 11  1  0
 11 12  1  0
 12 13  1  0
 13 14  1  1
 13 15  1  0
 15 16  1  0
 16 17  1  0
 17 18  2  0
 18 19  1  0
 19 20  1  0
 20 21  1  0
 21 22  1  0
 22 23  1  0
 22 24  1  0
 24 25  1  0
 24 26  1  0
 19 27  1  0
 27 28  1  6
 27 29  1  0
 29 30  1  0
 30 31  1  0
 31 32  1  1
  7  5  1  0
 31 10  1  0
 31 13  1  0
 27 15  1  0
 24 18  1  0
  1 33  1  0
  1 34  1  0
  1 35  1  0
  2 36  1  6
  3 37  1  0
  3 38  1  0
  4 39  1  0
  4 40  1  0
  5 41  1  1
  8 42  1  0
  8 43  1  0
  8 44  1  0
  9 45  1  0
  9 46  1  0
  9 47  1  0
 10 48  1  1
 11 49  1  0
 11 50  1  0
 12 51  1  0
 12 52  1  0
 14 53  1  0
 14 54  1  0
 14 55  1  0
 15 56  1  6
 16 57  1  0
 16 58  1  0
 17 59  1  0
 19 60  1  1
 20 61  1  0
 20 62  1  0
 21 63  1  0
 21 64  1  0
 22 65  1  1
 23 66  1  0
 25 67  1  0
 25 68  1  0
 25 69  1  0
 26 70  1  0
 26 71  1  0
 26 72  1  0
 28 73  1  0
 28 74  1  0
 28 75  1  0
 29 76  1  0
 29 77  1  0
 30 78  1  0
 30 79  1  0
 32 80  1  0
 32 81  1  0
 32 82  1  0
M  END
>  <meeko>  (5) 
{"is_sidechain": [false], "intermolecular_energy": 2.731, "internal_energy": -0.839}

$$$$
EPH_relaxed_0001_pdb2pqr_Repair_231_r2_0001_out
     RDKit          3D

 82 86  0  0  0  0  0  0  0  0999 V2000
   -3.4170    9.3220    0.5310 C   0  0  0  0  0  0  0  0  0  0  0  0
   -2.5820    9.6800   -0.7020 C   0  0  2  0  0  0  0  0  0  0  0  0
   -1.9110    8.4420   -1.3290 C   0  0  0  0  0  0  0  0  0  0  0  0
   -2.8240    7.6620   -2.2780 C   0  0  0  0  0  0  0  0  0  0  0  0
   -4.2630    7.7630   -1.8720 C   0  0  2  0  0  0  0  0  0  0  0  0
   -4.8150    6.5610   -1.3190 O   0  0  0  0  0  0  0  0  0  0  0  0
   -5.3820    7.0060   -2.5620 C   0  0  0  0  0  0  0  0  0  0  0  0
   -5.1110    6.0920   -3.7150 C   0  0  0  0  0  0  0  0  0  0  0  0
   -6.7810    7.5240   -2.4350 C   0  0  0  0  0  0  0  0  0  0  0  0
   -1.5260   10.7140   -0.3310 C   0  0  1  0  0  0  0  0  0  0  0  0
   -0.4290   10.1400    0.6050 C   0  0  0  0  0  0  0  0  0  0  0  0
    0.9010   10.8330    0.2140 C   0  0  0  0  0  0  0  0  0  0  0  0
    0.4750   12.0110   -0.6940 C   0  0  1  0  0  0  0  0  0  0  0  0
    0.0320   13.1370    0.2920 C   0  0  0  0  0  0  0  0  0  0  0  0
    1.5470   12.5230   -1.7100 C   0  0  2  0  0  0  0  0  0  0  0  0
    2.8260   13.0960   -1.0760 C   0  0  0  0  0  0  0  0  0  0  0  0
    2.7980   14.5620   -0.7980 C   0  0  0  0  0  0  0  0  0  0  0  0
    1.9080   15.4370   -1.3010 C   0  0  0  0  0  0  0  0  0  0  0  0
    0.8570   14.9900   -2.3250 C   0  0  1  0  0  0  0  0  0  0  0  0
    0.8080   16.0060   -3.4950 C   0  0  0  0  0  0  0  0  0  0  0  0
    0.5850   17.4380   -3.0180 C   0  0  0  0  0  0  0  0  0  0  0  0
    1.6820   17.8660   -2.0470 C   0  0  2  0  0  0  0  0  0  0  0  0
    2.9230   17.9390   -2.7560 O   0  0  0  0  0  0  0  0  0  0  0  0
    1.8310   16.9100   -0.8300 C   0  0  0  0  0  0  0  0  0  0  0  0
    0.6040   17.0590    0.1020 C   0  0  0  0  0  0  0  0  0  0  0  0
    3.0620   17.3750   -0.0060 C   0  0  0  0  0  0  0  0  0  0  0  0
    0.9740   13.4860   -2.8270 C   0  0  1  0  0  0  0  0  0  0  0  0
    1.9570   13.4040   -4.0340 C   0  0  0  0  0  0  0  0  0  0  0  0
   -0.4290   13.0130   -3.3630 C   0  0  0  0  0  0  0  0  0  0  0  0
   -1.3990   12.4060   -2.3310 C   0  0  0  0  0  0  0  0  0  0  0  0
   -0.7020   11.3350   -1.4880 C   0  0  2  0  0  0  0  0  0  0  0  0
   -0.2640   10.1780   -2.4490 C   0  0  0  0  0  0  0  0  0  0  0  0
   -2.8495    9.5653    1.4414 H   0  0  0  0  0  0  0  0  0  0  0  0
   -4.3545    9.8973    0.5186 H   0  0  0  0  0  0  0  0  0  0  0  0
   -3.6467    8.2463    0.5186 H   0  0  0  0  0  0  0  0  0  0  0  0
   -3.2657   10.1001   -1.4544 H   0  0  0  0  0  0  0  0  0  0  0  0
   -1.0268    8.7743   -1.8927 H   0  0  0  0  0  0  0  0  0  0  0  0
   -1.6514    7.7638   -0.5027 H   0  0  0  0  0  0  0  0  0  0  0  0
   -2.7112    8.0674   -3.2943 H   0  0  0  0  0  0  0  0  0  0  0  0
   -2.5313    6.6023   -2.2410 H   0  0  0  0  0  0  0  0  0  0  0  0
   -4.1402    8.8254   -1.6148 H   0  0  0  0  0  0  0  0  0  0  0  0
   -4.8174    5.1017   -3.3367 H   0  0  0  0  0  0  0  0  0  0  0  0
   -6.0193    5.9958   -4.3280 H   0  0  0  0  0  0  0  0  0  0  0  0
   -4.2971    6.5065   -4.3280 H   0  0  0  0  0  0  0  0  0  0  0  0
   -7.0411    7.6203   -1.3705 H   0  0  0  0  0  0  0  0  0  0  0  0
   -6.8530    8.5084   -2.9206 H   0  0  0  0  0  0  0  0  0  0  0  0
   -7.4767    6.8239   -2.9206 H   0  0  0  0  0  0  0  0  0  0  0  0
   -2.1704   11.4795    0.1260 H   0  0  0  0  0  0  0  0  0  0  0  0
   -0.6751   10.3577    1.6548 H   0  0  0  0  0  0  0  0  0  0  0  0
   -0.3512    9.0479    0.4985 H   0  0  0  0  0  0  0  0  0  0  0  0
    1.4244   11.2017    1.1085 H   0  0  0  0  0  0  0  0  0  0  0  0
    1.5961   10.1466   -0.2918 H   0  0  0  0  0  0  0  0  0  0  0  0
    0.1678   12.7919    1.3276 H   0  0  0  0  0  0  0  0  0  0  0  0
    0.6438   14.0352    0.1216 H   0  0  0  0  0  0  0  0  0  0  0  0
   -1.0278   13.3775    0.1216 H   0  0  0  0  0  0  0  0  0  0  0  0
    1.8541   11.5955   -2.2154 H   0  0  0  0  0  0  0  0  0  0  0  0
    2.9972   12.5727   -0.1237 H   0  0  0  0  0  0  0  0  0  0  0  0
    3.6270   12.9414   -1.8139 H   0  0  0  0  0  0  0  0  0  0  0  0
    3.5707   14.9613   -0.1246 H   0  0  0  0  0  0  0  0  0  0  0  0
   -0.1052   14.9890   -1.7919 H   0  0  0  0  0  0  0  0  0  0  0  0
    1.7617   15.9609   -4.0413 H   0  0  0  0  0  0  0  0  0  0  0  0
   -0.0410   15.7327   -4.1389 H   0  0  0  0  0  0  0  0  0  0  0  0
    0.5904   18.1121   -3.8873 H   0  0  0  0  0  0  0  0  0  0  0  0
   -0.3833   17.4885   -2.4985 H   0  0  0  0  0  0  0  0  0  0  0  0
    1.3979   18.8481   -1.6412 H   0  0  0  0  0  0  0  0  0  0  0  0
    3.6320   17.7030   -2.1340 H   0  0  0  0  0  0  0  0  0  0  0  0
    0.9332   17.0190    1.1508 H   0  0  0  0  0  0  0  0  0  0  0  0
    0.1117   18.0235   -0.0913 H   0  0  0  0  0  0  0  0  0  0  0  0
   -0.1048   16.2403   -0.0913 H   0  0  0  0  0  0  0  0  0  0  0  0
    2.8378   17.2903    1.0676 H   0  0  0  0  0  0  0  0  0  0  0  0
    3.9275   16.7419   -0.2509 H   0  0  0  0  0  0  0  0  0  0  0  0
    3.2928   18.4223   -0.2509 H   0  0  0  0  0  0  0  0  0  0  0  0
    2.9885   13.3180   -3.6616 H   0  0  0  0  0  0  0  0  0  0  0  0
    1.7134   12.5231   -4.6461 H   0  0  0  0  0  0  0  0  0  0  0  0
    1.8628   14.3131   -4.6461 H   0  0  0  0  0  0  0  0  0  0  0  0
   -0.9250   13.8859   -3.8124 H   0  0  0  0  0  0  0  0  0  0  0  0
   -0.2079   12.1957   -4.0653 H   0  0  0  0  0  0  0  0  0  0  0  0
   -1.7649   13.2040   -1.6682 H   0  0  0  0  0  0  0  0  0  0  0  0
   -2.2366   11.9386   -2.8694 H   0  0  0  0  0  0  0  0  0  0  0  0
    0.0638    9.3122   -1.8549 H   0  0  0  0  0  0  0  0  0  0  0  0
   -1.1141    9.8867   -3.0834 H   0  0  0  0  0  0  0  0  0  0  0  0
    0.5659   10.5227   -3.0834 H   0  0  0  0  0  0  0  0  0  0  0  0
  1  2  1  0
  2  3  1  0
  3  4  1  0
  4  5  1  0
  5  6  1  0
  6  7  1  0
  7  8  1  0
  7  9  1  0
  2 10  1  0
 10 11  1  0
 11 12  1  0
 12 13  1  0
 13 14  1  1
 13 15  1  0
 15 16  1  0
 16 17  1  0
 17 18  2  0
 18 19  1  0
 19 20  1  0
 20 21  1  0
 21 22  1  0
 22 23  1  0
 22 24  1  0
 24 25  1  0
 24 26  1  0
 19 27  1  0
 27 28  1  6
 27 29  1  0
 29 30  1  0
 30 31  1  0
 31 32  1  6
  7  5  1  0
 31 10  1  0
 31 13  1  0
 27 15  1  0
 24 18  1  0
  1 33  1  0
  1 34  1  0
  1 35  1  0
  2 36  1  6
  3 37  1  0
  3 38  1  0
  4 39  1  0
  4 40  1  0
  5 41  1  1
  8 42  1  0
  8 43  1  0
  8 44  1  0
  9 45  1  0
  9 46  1  0
  9 47  1  0
 10 48  1  1
 11 49  1  0
 11 50  1  0
 12 51  1  0
 12 52  1  0
 14 53  1  0
 14 54  1  0
 14 55  1  0
 15 56  1  6
 16 57  1  0
 16 58  1  0
 17 59  1  0
 19 60  1  1
 20 61  1  0
 20 62  1  0
 21 63  1  0
 21 64  1  0
 22 65  1  1
 23 66  1  0
 25 67  1  0
 25 68  1  0
 25 69  1  0
 26 70  1  0
 26 71  1  0
 26 72  1  0
 28 73  1  0
 28 74  1  0
 28 75  1  0
 29 76  1  0
 29 77  1  0
 30 78  1  0
 30 79  1  0
 32 80  1  0
 32 81  1  0
 32 82  1  0
M  END
>  <meeko>  (6) 
{"is_sidechain": [false], "intermolecular_energy": 2.731, "internal_energy": -0.839}

$$$$
EPH_relaxed_0001_pdb2pqr_Repair_231_r2_0001_out
     RDKit          3D

 82 86  0  0  0  0  0  0  0  0999 V2000
    3.6830   17.9610    0.7810 C   0  0  0  0  0  0  0  0  0  0  0  0
    2.6950   18.3610   -0.3180 C   0  0  2  0  0  0  0  0  0  0  0  0
    1.9620   19.6770    0.0110 C   0  0  0  0  0  0  0  0  0  0  0  0
    0.8250   19.5130    1.0230 C   0  0  0  0  0  0  0  0  0  0  0  0
   -0.4490   20.1270    0.5290 C   0  0  2  0  0  0  0  0  0  0  0  0
   -1.4980   20.1940    1.5040 O   0  0  0  0  0  0  0  0  0  0  0  0
   -1.7430   19.3520    0.3660 C   0  0  0  0  0  0  0  0  0  0  0  0
   -1.8260   17.8940    0.6950 C   0  0  0  0  0  0  0  0  0  0  0  0
   -2.7850   19.8870   -0.5670 C   0  0  0  0  0  0  0  0  0  0  0  0
    1.6830   17.2430   -0.5380 C   0  0  1  0  0  0  0  0  0  0  0  0
    0.4600   17.7010   -1.3770 C   0  0  0  0  0  0  0  0  0  0  0  0
    0.0330   16.4890   -2.2450 C   0  0  0  0  0  0  0  0  0  0  0  0
    0.8010   15.2890   -1.6430 C   0  0  1  0  0  0  0  0  0  0  0  0
   -0.0400   14.8560   -0.4010 C   0  0  0  0  0  0  0  0  0  0  0  0
    1.0680   14.0870   -2.6060 C   0  0  2  0  0  0  0  0  0  0  0  0
   -0.1930   13.3840   -3.1390 C   0  0  0  0  0  0  0  0  0  0  0  0
   -0.6870   12.2450   -2.3090 C   0  0  0  0  0  0  0  0  0  0  0  0
    0.0110   11.6220   -1.3420 C   0  0  0  0  0  0  0  0  0  0  0  0
    1.4750   11.9890   -1.0660 C   0  0  1  0  0  0  0  0  0  0  0  0
    2.3180   10.6930   -0.9360 C   0  0  0  0  0  0  0  0  0  0  0  0
    1.7520    9.7280    0.1020 C   0  0  0  0  0  0  0  0  0  0  0  0
    0.3160    9.3420   -0.2380 C   0  0  2  0  0  0  0  0  0  0  0  0
    0.3190    8.5720   -1.4440 O   0  0  0  0  0  0  0  0  0  0  0  0
   -0.6260   10.5670   -0.4040 C   0  0  0  0  0  0  0  0  0  0  0  0
   -0.8680   11.2270    0.9760 C   0  0  0  0  0  0  0  0  0  0  0  0
   -2.0070   10.0470   -0.8840 C   0  0  0  0  0  0  0  0  0  0  0  0
    2.1260   13.0430   -2.0620 C   0  0  1  0  0  0  0  0  0  0  0  0
    2.7080   12.3080   -3.3070 C   0  0  0  0  0  0  0  0  0  0  0  0
    3.3430   13.7410   -1.3480 C   0  0  0  0  0  0  0  0  0  0  0  0
    3.0310   14.9940   -0.5080 C   0  0  0  0  0  0  0  0  0  0  0  0
    2.1690   15.9830   -1.2980 C   0  0  2  0  0  0  0  0  0  0  0  0
    2.9970   16.4530   -2.5420 C   0  0  0  0  0  0  0  0  0  0  0  0
    3.2296   18.1446    1.7662 H   0  0  0  0  0  0  0  0  0  0  0  0
    3.9276   16.8930    0.6832 H   0  0  0  0  0  0  0  0  0  0  0  0
    4.6017   18.5580    0.6832 H   0  0  0  0  0  0  0  0  0  0  0  0
    3.2733   18.5265   -1.2390 H   0  0  0  0  0  0  0  0  0  0  0  0
    2.6933   20.3880    0.4228 H   0  0  0  0  0  0  0  0  0  0  0  0
    1.5091   20.0349   -0.9254 H   0  0  0  0  0  0  0  0  0  0  0  0
    0.6582   18.4404    1.2011 H   0  0  0  0  0  0  0  0  0  0  0  0
    1.1156   20.0262    1.9515 H   0  0  0  0  0  0  0  0  0  0  0  0
    0.1060   20.7877   -0.1532 H   0  0  0  0  0  0  0  0  0  0  0  0
   -1.8334   17.7644    1.7873 H   0  0  0  0  0  0  0  0  0  0  0  0
   -2.7495   17.4741    0.2697 H   0  0  0  0  0  0  0  0  0  0  0  0
   -0.9561   17.3720    0.2697 H   0  0  0  0  0  0  0  0  0  0  0  0
   -3.6149   20.3131    0.0158 H   0  0  0  0  0  0  0  0  0  0  0  0
   -2.3425   20.6694   -1.2011 H   0  0  0  0  0  0  0  0  0  0  0  0
   -3.1630   19.0714   -1.2011 H   0  0  0  0  0  0  0  0  0  0  0  0
    1.4590   16.9885    0.5085 H   0  0  0  0  0  0  0  0  0  0  0  0
   -0.3642   18.0002   -0.7128 H   0  0  0  0  0  0  0  0  0  0  0  0
    0.7147   18.5667   -2.0060 H   0  0  0  0  0  0  0  0  0  0  0  0
   -1.0531   16.3276   -2.1792 H   0  0  0  0  0  0  0  0  0  0  0  0
    0.2606   16.6380   -3.3108 H   0  0  0  0  0  0  0  0  0  0  0  0
    0.4960   15.1320    0.5191 H   0  0  0  0  0  0  0  0  0  0  0  0
   -1.0154   15.3640   -0.4235 H   0  0  0  0  0  0  0  0  0  0  0  0
   -0.1932   13.7669   -0.4235 H   0  0  0  0  0  0  0  0  0  0  0  0
    1.5247   14.5802   -3.4767 H   0  0  0  0  0  0  0  0  0  0  0  0
   -0.9974   14.1316   -3.2035 H   0  0  0  0  0  0  0  0  0  0  0  0
    0.0868   12.9531   -4.1116 H   0  0  0  0  0  0  0  0  0  0  0  0
   -1.7078   11.8849   -2.5047 H   0  0  0  0  0  0  0  0  0  0  0  0
    1.4767   12.5332   -0.1101 H   0  0  0  0  0  0  0  0  0  0  0  0
    2.3399   10.1872   -1.9126 H   0  0  0  0  0  0  0  0  0  0  0  0
    3.3269   10.9827   -0.6072 H   0  0  0  0  0  0  0  0  0  0  0  0
    2.3727    8.8202    0.1257 H   0  0  0  0  0  0  0  0  0  0  0  0
    1.7589   10.2246    1.0835 H   0  0  0  0  0  0  0  0  0  0  0  0
   -0.0763    8.7571    0.6070 H   0  0  0  0  0  0  0  0  0  0  0  0
    0.7510    7.7230   -1.2500 H   0  0  0  0  0  0  0  0  0  0  0  0
   -0.6072   10.5156    1.7735 H   0  0  0  0  0  0  0  0  0  0  0  0
   -0.2411   12.1263    1.0674 H   0  0  0  0  0  0  0  0  0  0  0  0
   -1.9276   11.5079    1.0674 H   0  0  0  0  0  0  0  0  0  0  0  0
   -2.6335    9.8111   -0.0112 H   0  0  0  0  0  0  0  0  0  0  0  0
   -2.4997   10.8212   -1.4905 H   0  0  0  0  0  0  0  0  0  0  0  0
   -1.8667    9.1401   -1.4905 H   0  0  0  0  0  0  0  0  0  0  0  0
    3.3592   11.4856   -2.9760 H   0  0  0  0  0  0  0  0  0  0  0  0
    1.8836   11.9023   -3.9118 H   0  0  0  0  0  0  0  0  0  0  0  0
    3.2919   13.0174   -3.9118 H   0  0  0  0  0  0  0  0  0  0  0  0
    3.8066   12.9999   -0.6803 H   0  0  0  0  0  0  0  0  0  0  0  0
    3.9901   14.0956   -2.1638 H   0  0  0  0  0  0  0  0  0  0  0  0
    2.4906   14.6922    0.4013 H   0  0  0  0  0  0  0  0  0  0  0  0
    3.9794   15.4862   -0.2468 H   0  0  0  0  0  0  0  0  0  0  0  0
    3.9070   16.9696   -2.2029 H   0  0  0  0  0  0  0  0  0  0  0  0
    3.2761   15.5787   -3.1483 H   0  0  0  0  0  0  0  0  0  0  0  0
    2.3893   17.1408   -3.1483 H   0  0  0  0  0  0  0  0  0  0  0  0
  1  2  1  0
  2  3  1  0
  3  4  1  0
  4  5  1  0
  5  6  1  0
  6  7  1  0
  7  8  1  0
  7  9  1  0
  2 10  1  0
 10 11  1  0
 11 12  1  0
 12 13  1  0
 13 14  1  1
 13 15  1  0
 15 16  1  0
 16 17  1  0
 17 18  2  0
 18 19  1  0
 19 20  1  0
 20 21  1  0
 21 22  1  0
 22 23  1  0
 22 24  1  0
 24 25  1  0
 24 26  1  0
 19 27  1  0
 27 28  1  6
 27 29  1  0
 29 30  1  0
 30 31  1  0
 31 32  1  6
  7  5  1  0
 31 10  1  0
 31 13  1  0
 27 15  1  0
 24 18  1  0
  1 33  1  0
  1 34  1  0
  1 35  1  0
  2 36  1  6
  3 37  1  0
  3 38  1  0
  4 39  1  0
  4 40  1  0
  5 41  1  6
  8 42  1  0
  8 43  1  0
  8 44  1  0
  9 45  1  0
  9 46  1  0
  9 47  1  0
 10 48  1  1
 11 49  1  0
 11 50  1  0
 12 51  1  0
 12 52  1  0
 14 53  1  0
 14 54  1  0
 14 55  1  0
 15 56  1  6
 16 57  1  0
 16 58  1  0
 17 59  1  0
 19 60  1  1
 20 61  1  0
 20 62  1  0
 21 63  1  0
 21 64  1  0
 22 65  1  1
 23 66  1  0
 25 67  1  0
 25 68  1  0
 25 69  1  0
 26 70  1  0
 26 71  1  0
 26 72  1  0
 28 73  1  0
 28 74  1  0
 28 75  1  0
 29 76  1  0
 29 77  1  0
 30 78  1  0
 30 79  1  0
 32 80  1  0
 32 81  1  0
 32 82  1  0
M  END
>  <meeko>  (7) 
{"is_sidechain": [false], "intermolecular_energy": 2.731, "internal_energy": -0.839}

$$$$
EPH_relaxed_0001_pdb2pqr_Repair_231_r2_0001_out
     RDKit          3D

 82 86  0  0  0  0  0  0  0  0999 V2000
   -5.1520    5.8760   -1.7370 C   0  0  0  0  0  0  0  0  0  0  0  0
   -5.4520    7.3760   -1.7930 C   0  0  2  0  0  0  0  0  0  0  0  0
   -5.2280    8.0650   -0.4330 C   0  0  0  0  0  0  0  0  0  0  0  0
   -4.1720    9.1740   -0.4710 C   0  0  0  0  0  0  0  0  0  0  0  0
   -2.8120    8.6330   -0.7940 C   0  0  2  0  0  0  0  0  0  0  0  0
   -1.8030    8.9320    0.1790 O   0  0  0  0  0  0  0  0  0  0  0  0
   -1.6200    9.5110   -1.1230 C   0  0  0  0  0  0  0  0  0  0  0  0
   -1.7320   11.0030   -1.1460 C   0  0  0  0  0  0  0  0  0  0  0  0
   -0.4830    8.9150   -1.8940 C   0  0  0  0  0  0  0  0  0  0  0  0
   -6.8850    7.6020   -2.2620 C   0  0  1  0  0  0  0  0  0  0  0  0
   -7.1890    6.9040   -3.6150 C   0  0  0  0  0  0  0  0  0  0  0  0
   -8.6640    6.4320   -3.5530 C   0  0  0  0  0  0  0  0  0  0  0  0
   -9.2540    7.1550   -2.3200 C   0  0  1  0  0  0  0  0  0  0  0  0
   -9.6030    8.5900   -2.8260 C   0  0  0  0  0  0  0  0  0  0  0  0
  -10.4820    6.4680   -1.6390 C   0  0  2  0  0  0  0  0  0  0  0  0
  -11.7340    6.3410   -2.5250 C   0  0  0  0  0  0  0  0  0  0  0  0
  -12.6880    7.4870   -2.4490 C   0  0  0  0  0  0  0  0  0  0  0  0
  -12.6940    8.4370   -1.4950 C   0  0  0  0  0  0  0  0  0  0  0  0
  -11.7330    8.3620   -0.3020 C   0  0  1  0  0  0  0  0  0  0  0  0
  -12.5130    8.6430    1.0100 C   0  0  0  0  0  0  0  0  0  0  0  0
  -13.2830    9.9600    0.9620 C   0  0  0  0  0  0  0  0  0  0  0  0
  -14.2690    9.9730   -0.2030 C   0  0  2  0  0  0  0  0  0  0  0  0
  -15.2870    8.9990    0.0440 O   0  0  0  0  0  0  0  0  0  0  0  0
  -13.5990    9.6920   -1.5770 C   0  0  0  0  0  0  0  0  0  0  0  0
  -12.7190   10.9000   -1.9840 C   0  0  0  0  0  0  0  0  0  0  0  0
  -14.7210    9.5930   -2.6450 C   0  0  0  0  0  0  0  0  0  0  0  0
  -10.8410    7.0500   -0.2120 C   0  0  1  0  0  0  0  0  0  0  0  0
  -11.6180    5.9290    0.5440 C   0  0  0  0  0  0  0  0  0  0  0  0
   -9.5590    7.3580    0.6480 C   0  0  0  0  0  0  0  0  0  0  0  0
   -8.3380    7.9230   -0.1020 C   0  0  0  0  0  0  0  0  0  0  0  0
   -8.0230    7.0860   -1.3450 C   0  0  2  0  0  0  0  0  0  0  0  0
   -7.6460    5.6420   -0.8660 C   0  0  0  0  0  0  0  0  0  0  0  0
   -5.0876    5.5539   -0.6872 H   0  0  0  0  0  0  0  0  0  0  0  0
   -5.9571    5.3219   -2.2418 H   0  0  0  0  0  0  0  0  0  0  0  0
   -4.1957    5.6742   -2.2418 H   0  0  0  0  0  0  0  0  0  0  0  0
   -4.7502    7.8269   -2.5100 H   0  0  0  0  0  0  0  0  0  0  0  0
   -6.1816    8.5046   -0.1052 H   0  0  0  0  0  0  0  0  0  0  0  0
   -4.8603    7.2947    0.2609 H   0  0  0  0  0  0  0  0  0  0  0  0
   -4.4547    9.9094   -1.2386 H   0  0  0  0  0  0  0  0  0  0  0  0
   -4.1282    9.6404    0.5243 H   0  0  0  0  0  0  0  0  0  0  0  0
   -3.2524    7.7648   -1.3061 H   0  0  0  0  0  0  0  0  0  0  0  0
   -1.7606   11.3845   -0.1147 H   0  0  0  0  0  0  0  0  0  0  0  0
   -0.8632   11.4279   -1.6701 H   0  0  0  0  0  0  0  0  0  0  0  0
   -2.6545   11.2934   -1.6701 H   0  0  0  0  0  0  0  0  0  0  0  0
    0.2683    8.5212   -1.1937 H   0  0  0  0  0  0  0  0  0  0  0  0
   -0.8580    8.0975   -2.5273 H   0  0  0  0  0  0  0  0  0  0  0  0
   -0.0241    9.6885   -2.5273 H   0  0  0  0  0  0  0  0  0  0  0  0
   -6.8966    8.7014   -2.2948 H   0  0  0  0  0  0  0  0  0  0  0  0
   -7.0524    7.6121   -4.4457 H   0  0  0  0  0  0  0  0  0  0  0  0
   -6.5095    6.0555   -3.7832 H   0  0  0  0  0  0  0  0  0  0  0  0
   -9.2029    6.7212   -4.4673 H   0  0  0  0  0  0  0  0  0  0  0  0
   -8.7488    5.3380   -3.4750 H   0  0  0  0  0  0  0  0  0  0  0  0
   -9.7644    9.2537   -1.9637 H   0  0  0  0  0  0  0  0  0  0  0  0
   -8.7725    8.9760   -3.4354 H   0  0  0  0  0  0  0  0  0  0  0  0
  -10.5180    8.5515   -3.4354 H   0  0  0  0  0  0  0  0  0  0  0  0
  -10.1208    5.4407   -1.4838 H   0  0  0  0  0  0  0  0  0  0  0  0
  -11.4028    6.2431   -3.5694 H   0  0  0  0  0  0  0  0  0  0  0  0
  -12.2825    5.4632   -2.1527 H   0  0  0  0  0  0  0  0  0  0  0  0
  -13.4500    7.5614   -3.2388 H   0  0  0  0  0  0  0  0  0  0  0  0
  -10.9825    9.1493   -0.4661 H   0  0  0  0  0  0  0  0  0  0  0  0
  -13.2267    7.8231    1.1785 H   0  0  0  0  0  0  0  0  0  0  0  0
  -11.7790    8.7147    1.8262 H   0  0  0  0  0  0  0  0  0  0  0  0
  -13.8368   10.0878    1.9038 H   0  0  0  0  0  0  0  0  0  0  0  0
  -12.5650   10.7818    0.8236 H   0  0  0  0  0  0  0  0  0  0  0  0
  -14.6942   10.9857   -0.2634 H   0  0  0  0  0  0  0  0  0  0  0  0
  -16.1110    9.3260   -0.3570 H   0  0  0  0  0  0  0  0  0  0  0  0
  -12.3502   11.4062   -1.0797 H   0  0  0  0  0  0  0  0  0  0  0  0
  -11.8650   10.5470   -2.5807 H   0  0  0  0  0  0  0  0  0  0  0  0
  -13.3169   11.6047   -2.5807 H   0  0  0  0  0  0  0  0  0  0  0  0
  -15.6969    9.5069   -2.1447 H   0  0  0  0  0  0  0  0  0  0  0  0
  -14.7096   10.4956   -3.2736 H   0  0  0  0  0  0  0  0  0  0  0  0
  -14.5517    8.7063   -3.2736 H   0  0  0  0  0  0  0  0  0  0  0  0
  -11.5143    6.0786    1.6288 H   0  0  0  0  0  0  0  0  0  0  0  0
  -12.6821    5.9705    0.2682 H   0  0  0  0  0  0  0  0  0  0  0  0
  -11.2057    4.9472    0.2682 H   0  0  0  0  0  0  0  0  0  0  0  0
   -9.8434    8.0892    1.4190 H   0  0  0  0  0  0  0  0  0  0  0  0
   -9.2318    6.3821    1.0360 H   0  0  0  0  0  0  0  0  0  0  0  0
   -8.5514    8.9574   -0.4093 H   0  0  0  0  0  0  0  0  0  0  0  0
   -7.4683    7.8930    0.5708 H   0  0  0  0  0  0  0  0  0  0  0  0
   -7.6379    5.6109    0.2335 H   0  0  0  0  0  0  0  0  0  0  0  0
   -8.3868    4.9240   -1.2477 H   0  0  0  0  0  0  0  0  0  0  0  0
   -6.6488    5.3777   -1.2477 H   0  0  0  0  0  0  0  0  0  0  0  0
  1  2  1  0
  2  3  1  0
  3  4  1  0
  4  5  1  0
  5  6  1  0
  6  7  1  0
  7  8  1  0
  7  9  1  0
  2 10  1  0
 10 11  1  0
 11 12  1  0
 12 13  1  0
 13 14  1  6
 13 15  1  0
 15 16  1  0
 16 17  1  0
 17 18  2  0
 18 19  1  0
 19 20  1  0
 20 21  1  0
 21 22  1  0
 22 23  1  0
 22 24  1  0
 24 25  1  0
 24 26  1  0
 19 27  1  0
 27 28  1  1
 27 29  1  0
 29 30  1  0
 30 31  1  0
 31 32  1  1
  7  5  1  0
 31 10  1  0
 31 13  1  0
 27 15  1  0
 24 18  1  0
  1 33  1  0
  1 34  1  0
  1 35  1  0
  2 36  1  6
  3 37  1  0
  3 38  1  0
  4 39  1  0
  4 40  1  0
  5 41  1  6
  8 42  1  0
  8 43  1  0
  8 44  1  0
  9 45  1  0
  9 46  1  0
  9 47  1  0
 10 48  1  6
 11 49  1  0
 11 50  1  0
 12 51  1  0
 12 52  1  0
 14 53  1  0
 14 54  1  0
 14 55  1  0
 15 56  1  1
 16 57  1  0
 16 58  1  0
 17 59  1  0
 19 60  1  6
 20 61  1  0
 20 62  1  0
 21 63  1  0
 21 64  1  0
 22 65  1  6
 23 66  1  0
 25 67  1  0
 25 68  1  0
 25 69  1  0
 26 70  1  0
 26 71  1  0
 26 72  1  0
 28 73  1  0
 28 74  1  0
 28 75  1  0
 29 76  1  0
 29 77  1  0
 30 78  1  0
 30 79  1  0
 32 80  1  0
 32 81  1  0
 32 82  1  0
M  END
>  <meeko>  (8) 
{"is_sidechain": [false], "intermolecular_energy": 2.731, "internal_energy": -0.839}

$$$$
EPH_relaxed_0001_pdb2pqr_Repair_231_r2_0001_out
     RDKit          3D

 82 86  0  0  0  0  0  0  0  0999 V2000
    0.4090    8.8620   -2.5570 C   0  0  0  0  0  0  0  0  0  0  0  0
    1.1740   10.0260   -3.1940 C   0  0  2  0  0  0  0  0  0  0  0  0
    2.6650   10.0230   -2.8030 C   0  0  0  0  0  0  0  0  0  0  0  0
    3.5830   10.6230   -3.8720 C   0  0  0  0  0  0  0  0  0  0  0  0
    4.9710   10.8430   -3.3520 C   0  0  2  0  0  0  0  0  0  0  0  0
    5.5940   12.0530   -3.8010 O   0  0  0  0  0  0  0  0  0  0  0  0
    6.2070   10.8270   -4.2320 C   0  0  0  0  0  0  0  0  0  0  0  0
    6.1120   10.5850   -5.7060 C   0  0  0  0  0  0  0  0  0  0  0  0
    7.5350   10.5610   -3.5950 C   0  0  0  0  0  0  0  0  0  0  0  0
    0.5330   11.3500   -2.7950 C   0  0  1  0  0  0  0  0  0  0  0  0
   -0.8390   11.1620   -2.0950 C   0  0  0  0  0  0  0  0  0  0  0  0
   -0.9530   12.2790   -1.0260 C   0  0  0  0  0  0  0  0  0  0  0  0
    0.1920   13.2620   -1.3660 C   0  0  1  0  0  0  0  0  0  0  0  0
   -0.3660   14.1430   -2.5270 C   0  0  0  0  0  0  0  0  0  0  0  0
    0.7270   14.1360   -0.1850 C   0  0  2  0  0  0  0  0  0  0  0  0
   -0.3030   15.0970    0.4340 C   0  0  0  0  0  0  0  0  0  0  0  0
   -0.3550   16.4570   -0.1790 C   0  0  0  0  0  0  0  0  0  0  0  0
    0.5810   16.9860   -0.9890 C   0  0  0  0  0  0  0  0  0  0  0  0
    1.8830   16.2310   -1.2860 C   0  0  1  0  0  0  0  0  0  0  0  0
    3.0870   17.1990   -1.1430 C   0  0  0  0  0  0  0  0  0  0  0  0
    2.9330   18.4550   -1.9950 C   0  0  0  0  0  0  0  0  0  0  0  0
    1.6570   19.2090   -1.6300 C   0  0  2  0  0  0  0  0  0  0  0  0
    1.7890   19.7200   -0.3000 O   0  0  0  0  0  0  0  0  0  0  0  0
    0.3780   18.3310   -1.7280 C   0  0  0  0  0  0  0  0  0  0  0  0
    0.0680   18.0270   -3.2150 C   0  0  0  0  0  0  0  0  0  0  0  0
   -0.8170   19.1690   -1.1980 C   0  0  0  0  0  0  0  0  0  0  0  0
    2.0940   14.8720   -0.4900 C   0  0  1  0  0  0  0  0  0  0  0  0
    2.7610   15.1620    0.8890 C   0  0  0  0  0  0  0  0  0  0  0  0
    3.1000   13.9600   -1.2870 C   0  0  0  0  0  0  0  0  0  0  0  0
    2.4970   13.0320   -2.3580 C   0  0  0  0  0  0  0  0  0  0  0  0
    1.3100   12.2440   -1.7960 C   0  0  2  0  0  0  0  0  0  0  0  0
    1.8460   11.3310   -0.6410 C   0  0  0  0  0  0  0  0  0  0  0  0
    0.4628    8.9438   -1.4614 H   0  0  0  0  0  0  0  0  0  0  0  0
   -0.6431    8.8964   -2.8761 H   0  0  0  0  0  0  0  0  0  0  0  0
    0.8580    7.9098   -2.8761 H   0  0  0  0  0  0  0  0  0  0  0  0
    1.1186    9.9009   -4.2855 H   0  0  0  0  0  0  0  0  0  0  0  0
    2.7825   10.6058   -1.8775 H   0  0  0  0  0  0  0  0  0  0  0  0
    2.9623    8.9714   -2.6774 H   0  0  0  0  0  0  0  0  0  0  0  0
    3.6285    9.9353   -4.7293 H   0  0  0  0  0  0  0  0  0  0  0  0
    3.1703   11.5982   -4.1697 H   0  0  0  0  0  0  0  0  0  0  0  0
    4.7267   10.3234   -2.4138 H   0  0  0  0  0  0  0  0  0  0  0  0
    5.7155    9.5750   -5.8870 H   0  0  0  0  0  0  0  0  0  0  0  0
    5.4393   11.3293   -6.1572 H   0  0  0  0  0  0  0  0  0  0  0  0
    7.1114   10.6729   -6.1572 H   0  0  0  0  0  0  0  0  0  0  0  0
    7.4275   10.5825   -2.5005 H   0  0  0  0  0  0  0  0  0  0  0  0
    7.9003    9.5718   -3.9082 H   0  0  0  0  0  0  0  0  0  0  0  0
    8.2531   11.3331   -3.9082 H   0  0  0  0  0  0  0  0  0  0  0  0
    0.4883   11.8376   -3.7800 H   0  0  0  0  0  0  0  0  0  0  0  0
   -1.6540   11.2547   -2.8280 H   0  0  0  0  0  0  0  0  0  0  0  0
   -0.9141   10.1658   -1.6346 H   0  0  0  0  0  0  0  0  0  0  0  0
   -1.9291   12.7818   -1.0922 H   0  0  0  0  0  0  0  0  0  0  0  0
   -0.8752   11.8859   -0.0016 H   0  0  0  0  0  0  0  0  0  0  0  0
   -0.9099   15.0018   -2.1068 H   0  0  0  0  0  0  0  0  0  0  0  0
    0.4681   14.5047   -3.1463 H   0  0  0  0  0  0  0  0  0  0  0  0
   -1.0494   13.5435   -3.1463 H   0  0  0  0  0  0  0  0  0  0  0  0
    0.9363   13.3831    0.5892 H   0  0  0  0  0  0  0  0  0  0  0  0
   -1.2984   14.6400    0.3321 H   0  0  0  0  0  0  0  0  0  0  0  0
    0.0088   15.2457    1.4784 H   0  0  0  0  0  0  0  0  0  0  0  0
   -1.2323   17.0796    0.0506 H   0  0  0  0  0  0  0  0  0  0  0  0
    1.8034   15.8857   -2.3274 H   0  0  0  0  0  0  0  0  0  0  0  0
    3.1760   17.4974   -0.0880 H   0  0  0  0  0  0  0  0  0  0  0  0
    3.9852   16.6679   -1.4910 H   0  0  0  0  0  0  0  0  0  0  0  0
    3.7995   19.1118   -1.8279 H   0  0  0  0  0  0  0  0  0  0  0  0
    2.8743   18.1569   -3.0522 H   0  0  0  0  0  0  0  0  0  0  0  0
    1.5346   20.0240   -2.3586 H   0  0  0  0  0  0  0  0  0  0  0  0
    1.8020   20.6910   -0.3580 H   0  0  0  0  0  0  0  0  0  0  0  0
   -0.7162   17.2580   -3.2763 H   0  0  0  0  0  0  0  0  0  0  0  0
   -0.2788   18.9448   -3.7123 H   0  0  0  0  0  0  0  0  0  0  0  0
    0.9789   17.6623   -3.7123 H   0  0  0  0  0  0  0  0  0  0  0  0
   -0.8094   19.1636   -0.0980 H   0  0  0  0  0  0  0  0  0  0  0  0
   -0.7284   20.2039   -1.5603 H   0  0  0  0  0  0  0  0  0  0  0  0
   -1.7598   18.7331   -1.5603 H   0  0  0  0  0  0  0  0  0  0  0  0
    2.0766   14.8644    1.6971 H   0  0  0  0  0  0  0  0  0  0  0  0
    3.6966   14.5894    0.9714 H   0  0  0  0  0  0  0  0  0  0  0  0
    2.9804   16.2367    0.9714 H   0  0  0  0  0  0  0  0  0  0  0  0
    3.8229   14.6207   -1.7879 H   0  0  0  0  0  0  0  0  0  0  0  0
    3.5357   13.2862   -0.5346 H   0  0  0  0  0  0  0  0  0  0  0  0
    2.1551   13.6393   -3.2090 H   0  0  0  0  0  0  0  0  0  0  0  0
    3.2704   12.3189   -2.6796 H   0  0  0  0  0  0  0  0  0  0  0  0
    1.5844   11.7766    0.3301 H   0  0  0  0  0  0  0  0  0  0  0  0
    1.3904   10.3330   -0.7211 H   0  0  0  0  0  0  0  0  0  0  0  0
    2.9395   11.2424   -0.7211 H   0  0  0  0  0  0  0  0  0  0  0  0
  1  2  1  0
  2  3  1  0
  3  4  1  0
  4  5  1  0
  5  6  1  0
  6  7  1  0
  7  8  1  0
  7  9  1  0
  2 10  1  0
 10 11  1  0
 11 12  1  0
 12 13  1  0
 13 14  1  6
 13 15  1  0
 15 16  1  0
 16 17  1  0
 17 18  2  0
 18 19  1  0
 19 20  1  0
 20 21  1  0
 21 22  1  0
 22 23  1  0
 22 24  1  0
 24 25  1  0
 24 26  1  0
 19 27  1  0
 27 28  1  1
 27 29  1  0
 29 30  1  0
 30 31  1  0
 31 32  1  1
  7  5  1  0
 31 10  1  0
 31 13  1  0
 27 15  1  0
 24 18  1  0
  1 33  1  0
  1 34  1  0
  1 35  1  0
  2 36  1  6
  3 37  1  0
  3 38  1  0
  4 39  1  0
  4 40  1  0
  5 41  1  1
  8 42  1  0
  8 43  1  0
  8 44  1  0
  9 45  1  0
  9 46  1  0
  9 47  1  0
 10 48  1  6
 11 49  1  0
 11 50  1  0
 12 51  1  0
 12 52  1  0
 14 53  1  0
 14 54  1  0
 14 55  1  0
 15 56  1  1
 16 57  1  0
 16 58  1  0
 17 59  1  0
 19 60  1  6
 20 61  1  0
 20 62  1  0
 21 63  1  0
 21 64  1  0
 22 65  1  6
 23 66  1  0
 25 67  1  0
 25 68  1  0
 25 69  1  0
 26 70  1  0
 26 71  1  0
 26 72  1  0
 28 73  1  0
 28 74  1  0
 28 75  1  0
 29 76  1  0
 29 77  1  0
 30 78  1  0
 30 79  1  0
 32 80  1  0
 32 81  1  0
 32 82  1  0
M  END
>  <meeko>  (9) 
{"is_sidechain": [false], "intermolecular_energy": 2.731, "internal_energy": -0.839}

$$$$
EPH_relaxed_0001_pdb2pqr_Repair_231_r2_0001_out
     RDKit          3D

 82 86  0  0  0  0  0  0  0  0999 V2000
    0.1640   17.8100   -2.6020 C   0  0  0  0  0  0  0  0  0  0  0  0
   -0.1020   16.9130   -1.3900 C   0  0  2  0  0  0  0  0  0  0  0  0
   -0.1740   17.7170   -0.0770 C   0  0  0  0  0  0  0  0  0  0  0  0
    0.4540   19.1100   -0.1730 C   0  0  0  0  0  0  0  0  0  0  0  0
    1.6090   19.2640    0.7700 C   0  0  2  0  0  0  0  0  0  0  0  0
    2.6120   20.1940    0.3410 O   0  0  0  0  0  0  0  0  0  0  0  0
    3.0220   18.8210    0.4410 C   0  0  0  0  0  0  0  0  0  0  0  0
    3.3550   18.1880   -0.8740 C   0  0  0  0  0  0  0  0  0  0  0  0
    3.9690   18.5550    1.5690 C   0  0  0  0  0  0  0  0  0  0  0  0
    0.9800   15.8440   -1.2880 C   0  0  1  0  0  0  0  0  0  0  0  0
    1.1780   15.3310    0.1630 C   0  0  0  0  0  0  0  0  0  0  0  0
    1.5270   13.8240    0.0610 C   0  0  0  0  0  0  0  0  0  0  0  0
    1.8440   13.5980   -1.4360 C   0  0  1  0  0  0  0  0  0  0  0  0
    3.3180   14.0800   -1.6110 C   0  0  0  0  0  0  0  0  0  0  0  0
    1.6460   12.1420   -1.9720 C   0  0  2  0  0  0  0  0  0  0  0  0
    2.5480   11.0790   -1.3220 C   0  0  0  0  0  0  0  0  0  0  0  0
    3.8570   10.8510   -2.0040 C   0  0  0  0  0  0  0  0  0  0  0  0
    4.1740   11.2610   -3.2460 C   0  0  0  0  0  0  0  0  0  0  0  0
    3.1320   11.9490   -4.1380 C   0  0  1  0  0  0  0  0  0  0  0  0
    3.1760   11.3260   -5.5580 C   0  0  0  0  0  0  0  0  0  0  0  0
    4.5740   11.3540   -6.1670 C   0  0  0  0  0  0  0  0  0  0  0  0
    5.5700   10.6110   -5.2790 C   0  0  2  0  0  0  0  0  0  0  0  0
    5.2340    9.2200   -5.2750 O   0  0  0  0  0  0  0  0  0  0  0  0
    5.6070   11.1440   -3.8200 C   0  0  0  0  0  0  0  0  0  0  0  0
    6.2570   12.5500   -3.7970 C   0  0  0  0  0  0  0  0  0  0  0  0
    6.5440   10.2200   -2.9970 C   0  0  0  0  0  0  0  0  0  0  0  0
    1.6580   12.0250   -3.5500 C   0  0  1  0  0  0  0  0  0  0  0  0
    0.8750   10.7250   -3.9060 C   0  0  0  0  0  0  0  0  0  0  0  0
    0.8880   13.2110   -4.2440 C   0  0  0  0  0  0  0  0  0  0  0  0
    1.0280   14.6020   -3.5980 C   0  0  0  0  0  0  0  0  0  0  0  0
    0.7660   14.5360   -2.0900 C   0  0  2  0  0  0  0  0  0  0  0  0
   -0.7170   14.0740   -1.8830 C   0  0  0  0  0  0  0  0  0  0  0  0
    0.4611   18.8119   -2.2585 H   0  0  0  0  0  0  0  0  0  0  0  0
    0.9721   17.3759   -3.2091 H   0  0  0  0  0  0  0  0  0  0  0  0
   -0.7501   17.8866   -3.2091 H   0  0  0  0  0  0  0  0  0  0  0  0
   -1.0824   16.4370   -1.5391 H   0  0  0  0  0  0  0  0  0  0  0  0
   -1.2317   17.8314    0.2026 H   0  0  0  0  0  0  0  0  0  0  0  0
    0.4007   17.1565    0.6751 H   0  0  0  0  0  0  0  0  0  0  0  0
    0.8097   19.2705   -1.2015 H   0  0  0  0  0  0  0  0  0  0  0  0
   -0.3121   19.8509    0.0995 H   0  0  0  0  0  0  0  0  0  0  0  0
    0.9583   19.0720    1.6359 H   0  0  0  0  0  0  0  0  0  0  0  0
    3.8607   17.2267   -0.7006 H   0  0  0  0  0  0  0  0  0  0  0  0
    2.4296   18.0179   -1.4439 H   0  0  0  0  0  0  0  0  0  0  0  0
    4.0194   18.8542   -1.4439 H   0  0  0  0  0  0  0  0  0  0  0  0
    3.4485   18.7012    2.5270 H   0  0  0  0  0  0  0  0  0  0  0  0
    4.3344   17.5195    1.5045 H   0  0  0  0  0  0  0  0  0  0  0  0
    4.8201   19.2488    1.5045 H   0  0  0  0  0  0  0  0  0  0  0  0
    1.8314   16.4039   -1.7023 H   0  0  0  0  0  0  0  0  0  0  0  0
    1.9992   15.8779    0.6494 H   0  0  0  0  0  0  0  0  0  0  0  0
    0.2699   15.4863    0.7641 H   0  0  0  0  0  0  0  0  0  0  0  0
    2.4017   13.5848    0.6837 H   0  0  0  0  0  0  0  0  0  0  0  0
    0.7081   13.1810    0.4160 H   0  0  0  0  0  0  0  0  0  0  0  0
    3.7748   14.2294   -0.6216 H   0  0  0  0  0  0  0  0  0  0  0  0
    3.8882   13.3215   -2.1674 H   0  0  0  0  0  0  0  0  0  0  0  0
    3.3299   15.0288   -2.1674 H   0  0  0  0  0  0  0  0  0  0  0  0
    0.6232   11.9065   -1.6427 H   0  0  0  0  0  0  0  0  0  0  0  0
    2.7534   11.3934   -0.2881 H   0  0  0  0  0  0  0  0  0  0  0  0
    1.9983   10.1288   -1.3920 H   0  0  0  0  0  0  0  0  0  0  0  0
    4.6275   10.3012   -1.4435 H   0  0  0  0  0  0  0  0  0  0  0  0
    3.4231   13.0087   -4.1856 H   0  0  0  0  0  0  0  0  0  0  0  0
    2.8400   10.2805   -5.4947 H   0  0  0  0  0  0  0  0  0  0  0  0
    2.5183   11.9247   -6.2053 H   0  0  0  0  0  0  0  0  0  0  0  0
    4.5456   10.8739   -7.1563 H   0  0  0  0  0  0  0  0  0  0  0  0
    4.8971   12.4016   -6.2575 H   0  0  0  0  0  0  0  0  0  0  0  0
    6.5735   10.7767   -5.6980 H   0  0  0  0  0  0  0  0  0  0  0  0
    5.1720    8.9290   -6.2000 H   0  0  0  0  0  0  0  0  0  0  0  0
    6.4044   12.8688   -2.7546 H   0  0  0  0  0  0  0  0  0  0  0  0
    7.2293   12.5129   -4.3100 H   0  0  0  0  0  0  0  0  0  0  0  0
    5.5988   13.2667   -4.3100 H   0  0  0  0  0  0  0  0  0  0  0  0
    6.3738   10.3878   -1.9233 H   0  0  0  0  0  0  0  0  0  0  0  0
    6.3305    9.1692   -3.2422 H   0  0  0  0  0  0  0  0  0  0  0  0
    7.5918   10.4482   -3.2422 H   0  0  0  0  0  0  0  0  0  0  0  0
    0.5686   10.2163   -2.9801 H   0  0  0  0  0  0  0  0  0  0  0  0
   -0.0174   10.9840   -4.4946 H   0  0  0  0  0  0  0  0  0  0  0  0
    1.5213   10.0573   -4.4946 H   0  0  0  0  0  0  0  0  0  0  0  0
    1.2549   13.2860   -5.2783 H   0  0  0  0  0  0  0  0  0  0  0  0
   -0.1779   12.9561   -4.1504 H   0  0  0  0  0  0  0  0  0  0  0  0
    2.0476   14.9774   -3.7699 H   0  0  0  0  0  0  0  0  0  0  0  0
    0.2873   15.2759   -4.0532 H   0  0  0  0  0  0  0  0  0  0  0  0
   -0.9332   14.0066   -0.8066 H   0  0  0  0  0  0  0  0  0  0  0  0
   -1.3965   14.8030   -2.3486 H   0  0  0  0  0  0  0  0  0  0  0  0
   -0.8623   13.0880   -2.3486 H   0  0  0  0  0  0  0  0  0  0  0  0
  1  2  1  0
  2  3  1  0
  3  4  1  0
  4  5  1  0
  5  6  1  0
  6  7  1  0
  7  8  1  0
  7  9  1  0
  2 10  1  0
 10 11  1  0
 11 12  1  0
 12 13  1  0
 13 14  1  1
 13 15  1  0
 15 16  1  0
 16 17  1  0
 17 18  2  0
 18 19  1  0
 19 20  1  0
 20 21  1  0
 21 22  1  0
 22 23  1  0
 22 24  1  0
 24 25  1  0
 24 26  1  0
 19 27  1  0
 27 28  1  1
 27 29  1  0
 29 30  1  0
 30 31  1  0
 31 32  1  6
  7  5  1  0
 31 10  1  0
 31 13  1  0
 27 15  1  0
 24 18  1  0
  1 33  1  0
  1 34  1  0
  1 35  1  0
  2 36  1  6
  3 37  1  0
  3 38  1  0
  4 39  1  0
  4 40  1  0
  5 41  1  1
  8 42  1  0
  8 43  1  0
  8 44  1  0
  9 45  1  0
  9 46  1  0
  9 47  1  0
 10 48  1  6
 11 49  1  0
 11 50  1  0
 12 51  1  0
 12 52  1  0
 14 53  1  0
 14 54  1  0
 14 55  1  0
 15 56  1  1
 16 57  1  0
 16 58  1  0
 17 59  1  0
 19 60  1  6
 20 61  1  0
 20 62  1  0
 21 63  1  0
 21 64  1  0
 22 65  1  6
 23 66  1  0
 25 67  1  0
 25 68  1  0
 25 69  1  0
 26 70  1  0
 26 71  1  0
 26 72  1  0
 28 73  1  0
 28 74  1  0
 28 75  1  0
 29 76  1  0
 29 77  1  0
 30 78  1  0
 30 79  1  0
 32 80  1  0
 32 81  1  0
 32 82  1  0
M  END
>  <meeko>  (10) 
{"is_sidechain": [false], "intermolecular_energy": 2.731, "internal_energy": -0.839}

$$$$
EPH_relaxed_0001_pdb2pqr_Repair_231_r2_0001_out
     RDKit          3D

 82 86  0  0  0  0  0  0  0  0999 V2000
    2.7180   18.8990   -1.2540 C   0  0  0  0  0  0  0  0  0  0  0  0
    2.3490   17.8470   -2.3050 C   0  0  2  0  0  0  0  0  0  0  0  0
    0.8910   17.9920   -2.7830 C   0  0  0  0  0  0  0  0  0  0  0  0
    0.2180   19.2880   -2.3240 C   0  0  0  0  0  0  0  0  0  0  0  0
   -1.0880   19.0220   -1.6380 C   0  0  2  0  0  0  0  0  0  0  0  0
   -1.8640   20.1930   -1.3530 O   0  0  0  0  0  0  0  0  0  0  0  0
   -1.3890   19.4550   -0.2150 C   0  0  0  0  0  0  0  0  0  0  0  0
   -0.3780   20.1890    0.6070 C   0  0  0  0  0  0  0  0  0  0  0  0
   -2.4710   18.7430    0.5350 C   0  0  0  0  0  0  0  0  0  0  0  0
    2.5770   16.4490   -1.7430 C   0  0  1  0  0  0  0  0  0  0  0  0
    3.3870   16.4620   -0.4190 C   0  0  0  0  0  0  0  0  0  0  0  0
    2.8310   15.3090    0.4560 C   0  0  0  0  0  0  0  0  0  0  0  0
    1.9620   14.4700   -0.5090 C   0  0  1  0  0  0  0  0  0  0  0  0
    2.9750   13.5660   -1.2800 C   0  0  0  0  0  0  0  0  0  0  0  0
    0.8190   13.6280    0.1450 C   0  0  2  0  0  0  0  0  0  0  0  0
    1.2890   12.5400    1.1260 C   0  0  0  0  0  0  0  0  0  0  0  0
    1.5460   11.2010    0.5190 C   0  0  0  0  0  0  0  0  0  0  0  0
    1.1370   10.8030   -0.7000 C   0  0  0  0  0  0  0  0  0  0  0  0
    0.2510   11.7070   -1.5670 C   0  0  1  0  0  0  0  0  0  0  0  0
   -0.9220   10.8760   -2.1510 C   0  0  0  0  0  0  0  0  0  0  0  0
   -0.4440    9.6360   -2.9000 C   0  0  0  0  0  0  0  0  0  0  0  0
    0.3850    8.7340   -1.9890 C   0  0  2  0  0  0  0  0  0  0  0  0
   -0.4660    8.2020   -0.9690 O   0  0  0  0  0  0  0  0  0  0  0  0
    1.5900    9.4660   -1.3350 C   0  0  0  0  0  0  0  0  0  0  0  0
    2.6580    9.7760   -2.4130 C   0  0  0  0  0  0  0  0  0  0  0  0
    2.2580    8.4850   -0.3330 C   0  0  0  0  0  0  0  0  0  0  0  0
   -0.2380   13.0580   -0.8860 C   0  0  1  0  0  0  0  0  0  0  0  0
   -1.5510   12.8040   -0.0840 C   0  0  0  0  0  0  0  0  0  0  0  0
   -0.5990   14.0990   -2.0110 C   0  0  0  0  0  0  0  0  0  0  0  0
    0.5490   14.9850   -2.5320 C   0  0  0  0  0  0  0  0  0  0  0  0
    1.3220   15.6190   -1.3710 C   0  0  2  0  0  0  0  0  0  0  0  0
    0.3340   16.5510   -0.5910 C   0  0  0  0  0  0  0  0  0  0  0  0
    2.5708   18.4794   -0.2479 H   0  0  0  0  0  0  0  0  0  0  0  0
    3.7716   19.1891   -1.3798 H   0  0  0  0  0  0  0  0  0  0  0  0
    2.0765   19.7837   -1.3798 H   0  0  0  0  0  0  0  0  0  0  0  0
    2.9998   18.0071   -3.1773 H   0  0  0  0  0  0  0  0  0  0  0  0
    0.8821   17.9669   -3.8827 H   0  0  0  0  0  0  0  0  0  0  0  0
    0.3234   17.1608   -2.3391 H   0  0  0  0  0  0  0  0  0  0  0  0
    0.8882   19.8094   -1.6247 H   0  0  0  0  0  0  0  0  0  0  0  0
    0.0189   19.9044   -3.2131 H   0  0  0  0  0  0  0  0  0  0  0  0
   -1.1875   18.0542   -2.1514 H   0  0  0  0  0  0  0  0  0  0  0  0
   -0.5914   20.0341    1.6749 H   0  0  0  0  0  0  0  0  0  0  0  0
    0.6282   19.8096    0.3753 H   0  0  0  0  0  0  0  0  0  0  0  0
   -0.4271   21.2632    0.3753 H   0  0  0  0  0  0  0  0  0  0  0  0
   -2.3019   18.8542    1.6162 H   0  0  0  0  0  0  0  0  0  0  0  0
   -3.4468   19.1760    0.2700 H   0  0  0  0  0  0  0  0  0  0  0  0
   -2.4594   17.6755    0.2700 H   0  0  0  0  0  0  0  0  0  0  0  0
    3.0935   15.9883   -2.5980 H   0  0  0  0  0  0  0  0  0  0  0  0
    4.4549   16.2991   -0.6265 H   0  0  0  0  0  0  0  0  0  0  0  0
    3.2898   17.4300    0.0944 H   0  0  0  0  0  0  0  0  0  0  0  0
    3.6519   14.7024    0.8661 H   0  0  0  0  0  0  0  0  0  0  0  0
    2.2572   15.6796    1.3183 H   0  0  0  0  0  0  0  0  0  0  0  0
    3.5950   13.0127   -0.5592 H   0  0  0  0  0  0  0  0  0  0  0  0
    2.4238   12.8541   -1.9120 H   0  0  0  0  0  0  0  0  0  0  0  0
    3.6199   14.1943   -1.9120 H   0  0  0  0  0  0  0  0  0  0  0  0
    0.2961   14.3772    0.7575 H   0  0  0  0  0  0  0  0  0  0  0  0
    2.2223   12.8853    1.5946 H   0  0  0  0  0  0  0  0  0  0  0  0
    0.4639   12.3970    1.8393 H   0  0  0  0  0  0  0  0  0  0  0  0
    2.1183   10.4780    1.1188 H   0  0  0  0  0  0  0  0  0  0  0  0
    0.8934   12.0706   -2.3825 H   0  0  0  0  0  0  0  0  0  0  0  0
   -1.5753   10.5589   -1.3247 H   0  0  0  0  0  0  0  0  0  0  0  0
   -1.4583   11.5139   -2.8690 H   0  0  0  0  0  0  0  0  0  0  0  0
   -1.3181    9.0754   -3.2629 H   0  0  0  0  0  0  0  0  0  0  0  0
    0.1850    9.9562   -3.7437 H   0  0  0  0  0  0  0  0  0  0  0  0
    0.8062    7.9320   -2.6130 H   0  0  0  0  0  0  0  0  0  0  0  0
   -0.7440    7.3140   -1.2510 H   0  0  0  0  0  0  0  0  0  0  0  0
    3.6041   10.0506   -1.9235 H   0  0  0  0  0  0  0  0  0  0  0  0
    2.8146    8.8862   -3.0405 H   0  0  0  0  0  0  0  0  0  0  0  0
    2.3139   10.6113   -3.0405 H   0  0  0  0  0  0  0  0  0  0  0  0
    2.0391    8.8064    0.6960 H   0  0  0  0  0  0  0  0  0  0  0  0
    1.8616    7.4714   -0.4927 H   0  0  0  0  0  0  0  0  0  0  0  0
    3.3463    8.4824   -0.4927 H   0  0  0  0  0  0  0  0  0  0  0  0
   -1.3361   12.8456    0.9940 H   0  0  0  0  0  0  0  0  0  0  0  0
   -2.2922   13.5754   -0.3401 H   0  0  0  0  0  0  0  0  0  0  0  0
   -1.9510   11.8118   -0.3401 H   0  0  0  0  0  0  0  0  0  0  0  0
   -1.0010   13.5376   -2.8673 H   0  0  0  0  0  0  0  0  0  0  0  0
   -1.3096   14.7952   -1.5416 H   0  0  0  0  0  0  0  0  0  0  0  0
    1.2374   14.3683   -3.1285 H   0  0  0  0  0  0  0  0  0  0  0  0
    0.1200   15.7887   -3.1484 H   0  0  0  0  0  0  0  0  0  0  0  0
    0.4784   16.4148    0.4909 H   0  0  0  0  0  0  0  0  0  0  0  0
    0.5312   17.5997   -0.8581 H   0  0  0  0  0  0  0  0  0  0  0  0
   -0.7014   16.2931   -0.8581 H   0  0  0  0  0  0  0  0  0  0  0  0
  1  2  1  0
  2  3  1  0
  3  4  1  0
  4  5  1  0
  5  6  1  0
  6  7  1  0
  7  8  1  0
  7  9  1  0
  2 10  1  0
 10 11  1  0
 11 12  1  0
 12 13  1  0
 13 14  1  6
 13 15  1  0
 15 16  1  0
 16 17  1  0
 17 18  2  0
 18 19  1  0
 19 20  1  0
 20 21  1  0
 21 22  1  0
 22 23  1  0
 22 24  1  0
 24 25  1  0
 24 26  1  0
 19 27  1  0
 27 28  1  1
 27 29  1  0
 29 30  1  0
 30 31  1  0
 31 32  1  1
  7  5  1  0
 31 10  1  0
 31 13  1  0
 27 15  1  0
 24 18  1  0
  1 33  1  0
  1 34  1  0
  1 35  1  0
  2 36  1  6
  3 37  1  0
  3 38  1  0
  4 39  1  0
  4 40  1  0
  5 41  1  6
  8 42  1  0
  8 43  1  0
  8 44  1  0
  9 45  1  0
  9 46  1  0
  9 47  1  0
 10 48  1  6
 11 49  1  0
 11 50  1  0
 12 51  1  0
 12 52  1  0
 14 53  1  0
 14 54  1  0
 14 55  1  0
 15 56  1  1
 16 57  1  0
 16 58  1  0
 17 59  1  0
 19 60  1  6
 20 61  1  0
 20 62  1  0
 21 63  1  0
 21 64  1  0
 22 65  1  6
 23 66  1  0
 25 67  1  0
 25 68  1  0
 25 69  1  0
 26 70  1  0
 26 71  1  0
 26 72  1  0
 28 73  1  0
 28 74  1  0
 28 75  1  0
 29 76  1  0
 29 77  1  0
 30 78  1  0
 30 79  1  0
 32 80  1  0
 32 81  1  0
 32 82  1  0
M  END
>  <meeko>  (11) 
{"is_sidechain": [false], "intermolecular_energy": 2.731, "internal_energy": -0.839}

$$$$
EPH_relaxed_0001_pdb2pqr_Repair_231_r2_0001_out
     RDKit          3D

 82 86  0  0  0  0  0  0  0  0999 V2000
   -3.7470    7.2160   -3.4170 C   0  0  0  0  0  0  0  0  0  0  0  0
   -3.7770    7.2870   -1.8880 C   0  0  2  0  0  0  0  0  0  0  0  0
   -5.1950    7.0700   -1.3240 C   0  0  0  0  0  0  0  0  0  0  0  0
   -6.3100    7.3570   -2.3330 C   0  0  0  0  0  0  0  0  0  0  0  0
   -7.6390    7.5180   -1.6600 C   0  0  2  0  0  0  0  0  0  0  0  0
   -8.1860    6.3090   -1.1180 O   0  0  0  0  0  0  0  0  0  0  0  0
   -8.9250    6.9130   -2.1920 C   0  0  0  0  0  0  0  0  0  0  0  0
   -8.9440    6.1020   -3.4490 C   0  0  0  0  0  0  0  0  0  0  0  0
  -10.2280    7.5130   -1.7650 C   0  0  0  0  0  0  0  0  0  0  0  0
   -3.2300    8.6300   -1.4190 C   0  0  1  0  0  0  0  0  0  0  0  0
   -3.8350    9.0810   -0.0630 C   0  0  0  0  0  0  0  0  0  0  0  0
   -2.7130    9.8300    0.7000 C   0  0  0  0  0  0  0  0  0  0  0  0
   -1.6150   10.0750   -0.3610 C   0  0  1  0  0  0  0  0  0  0  0  0
   -2.0930   11.3350   -1.1490 C   0  0  0  0  0  0  0  0  0  0  0  0
   -0.1580   10.2510    0.1790 C   0  0  2  0  0  0  0  0  0  0  0  0
    0.0550   11.4660    1.0990 C   0  0  0  0  0  0  0  0  0  0  0  0
    0.4590   12.7260    0.4080 C   0  0  0  0  0  0  0  0  0  0  0  0
    0.9200   12.8130   -0.8540 C   0  0  0  0  0  0  0  0  0  0  0  0
    1.1660   11.5510   -1.6910 C   0  0  1  0  0  0  0  0  0  0  0  0
    2.5490   11.6520   -2.3860 C   0  0  0  0  0  0  0  0  0  0  0  0
    2.7030   12.9330   -3.2010 C   0  0  0  0  0  0  0  0  0  0  0  0
    2.5090   14.1650   -2.3220 C   0  0  2  0  0  0  0  0  0  0  0  0
    3.5860   14.2350   -1.3820 O   0  0  0  0  0  0  0  0  0  0  0  0
    1.1520   14.1700   -1.5630 C   0  0  0  0  0  0  0  0  0  0  0  0
   -0.0050   14.3980   -2.5670 C   0  0  0  0  0  0  0  0  0  0  0  0
    1.1440   15.3920   -0.6060 C   0  0  0  0  0  0  0  0  0  0  0  0
    0.9610   10.1670   -0.9370 C   0  0  1  0  0  0  0  0  0  0  0  0
    2.2800    9.7550   -0.2140 C   0  0  0  0  0  0  0  0  0  0  0  0
    0.6660    9.0420   -1.9980 C   0  0  0  0  0  0  0  0  0  0  0  0
   -0.8070    8.8370   -2.4020 C   0  0  0  0  0  0  0  0  0  0  0  0
   -1.7040    8.7270   -1.1650 C   0  0  2  0  0  0  0  0  0  0  0  0
   -1.2610    7.4560   -0.3640 C   0  0  0  0  0  0  0  0  0  0  0  0
   -3.3367    6.2449   -3.7310 H   0  0  0  0  0  0  0  0  0  0  0  0
   -4.7687    7.3265   -3.8093 H   0  0  0  0  0  0  0  0  0  0  0  0
   -3.1141    8.0256   -3.8093 H   0  0  0  0  0  0  0  0  0  0  0  0
   -3.1423    6.4734   -1.5069 H   0  0  0  0  0  0  0  0  0  0  0  0
   -5.2826    6.0230   -0.9983 H   0  0  0  0  0  0  0  0  0  0  0  0
   -5.3226    7.7802   -0.4938 H   0  0  0  0  0  0  0  0  0  0  0  0
   -6.0704    8.2837   -2.8750 H   0  0  0  0  0  0  0  0  0  0  0  0
   -6.3763    6.5027   -3.0227 H   0  0  0  0  0  0  0  0  0  0  0  0
   -7.3803    8.5385   -1.3412 H   0  0  0  0  0  0  0  0  0  0  0  0
   -8.9691    5.0321   -3.1947 H   0  0  0  0  0  0  0  0  0  0  0  0
   -9.8364    6.3598   -4.0383 H   0  0  0  0  0  0  0  0  0  0  0  0
   -8.0406    6.3178   -4.0383 H   0  0  0  0  0  0  0  0  0  0  0  0
  -10.2785    7.5362   -0.6664 H   0  0  0  0  0  0  0  0  0  0  0  0
  -10.3059    8.5377   -2.1574 H   0  0  0  0  0  0  0  0  0  0  0  0
  -11.0572    6.9061   -2.1574 H   0  0  0  0  0  0  0  0  0  0  0  0
   -3.5085    9.2537   -2.2813 H   0  0  0  0  0  0  0  0  0  0  0  0
   -4.6898    9.7518   -0.2340 H   0  0  0  0  0  0  0  0  0  0  0  0
   -4.1972    8.2177    0.5146 H   0  0  0  0  0  0  0  0  0  0  0  0
   -3.0860   10.7843    1.1001 H   0  0  0  0  0  0  0  0  0  0  0  0
   -2.3399    9.2563    1.5612 H   0  0  0  0  0  0  0  0  0  0  0  0
   -2.3910   12.1204   -0.4388 H   0  0  0  0  0  0  0  0  0  0  0  0
   -1.2727   11.7048   -1.7817 H   0  0  0  0  0  0  0  0  0  0  0  0
   -2.9522   11.0676   -1.7817 H   0  0  0  0  0  0  0  0  0  0  0  0
   -0.0357    9.3661    0.8209 H   0  0  0  0  0  0  0  0  0  0  0  0
   -0.8878   11.6580    1.6322 H   0  0  0  0  0  0  0  0  0  0  0  0
    0.8910   11.2018    1.7634 H   0  0  0  0  0  0  0  0  0  0  0  0
    0.3728   13.6627    0.9782 H   0  0  0  0  0  0  0  0  0  0  0  0
    0.3685   11.5286   -2.4483 H   0  0  0  0  0  0  0  0  0  0  0  0
    3.3334   11.6282   -1.6152 H   0  0  0  0  0  0  0  0  0  0  0  0
    2.6366   10.8028   -3.0796 H   0  0  0  0  0  0  0  0  0  0  0  0
    3.7104   12.9603   -3.6419 H   0  0  0  0  0  0  0  0  0  0  0  0
    1.9373   12.9410   -3.9907 H   0  0  0  0  0  0  0  0  0  0  0  0
    2.5010   15.0437   -2.9837 H   0  0  0  0  0  0  0  0  0  0  0  0
    4.3350   14.6690   -1.8240 H   0  0  0  0  0  0  0  0  0  0  0  0
   -0.9385   14.5820   -2.0150 H   0  0  0  0  0  0  0  0  0  0  0  0
    0.2245   15.2682   -3.1995 H   0  0  0  0  0  0  0  0  0  0  0  0
   -0.1228   13.5058   -3.1995 H   0  0  0  0  0  0  0  0  0  0  0  0
    1.1463   15.0413    0.4366 H   0  0  0  0  0  0  0  0  0  0  0  0
    2.0381   16.0063   -0.7882 H   0  0  0  0  0  0  0  0  0  0  0  0
    0.2419   15.9945   -0.7882 H   0  0  0  0  0  0  0  0  0  0  0  0
    2.1312    9.8015    0.8749 H   0  0  0  0  0  0  0  0  0  0  0  0
    2.5518    8.7292   -0.5035 H   0  0  0  0  0  0  0  0  0  0  0  0
    3.0874   10.4438   -0.5035 H   0  0  0  0  0  0  0  0  0  0  0  0
    1.2300    9.2883   -2.9097 H   0  0  0  0  0  0  0  0  0  0  0  0
    0.9645    8.1018   -1.5112 H   0  0  0  0  0  0  0  0  0  0  0  0
   -1.1359    9.6926   -3.0102 H   0  0  0  0  0  0  0  0  0  0  0  0
   -0.8864    7.9028   -2.9773 H   0  0  0  0  0  0  0  0  0  0  0  0
   -1.3319    7.6593    0.7147 H   0  0  0  0  0  0  0  0  0  0  0  0
   -1.9181    6.6124   -0.6221 H   0  0  0  0  0  0  0  0  0  0  0  0
   -0.2219    7.2037   -0.6221 H   0  0  0  0  0  0  0  0  0  0  0  0
  1  2  1  0
  2  3  1  0
  3  4  1  0
  4  5  1  0
  5  6  1  0
  6  7  1  0
  7  8  1  0
  7  9  1  0
  2 10  1  0
 10 11  1  0
 11 12  1  0
 12 13  1  0
 13 14  1  6
 13 15  1  0
 15 16  1  0
 16 17  1  0
 17 18  2  0
 18 19  1  0
 19 20  1  0
 20 21  1  0
 21 22  1  0
 22 23  1  0
 22 24  1  0
 24 25  1  0
 24 26  1  0
 19 27  1  0
 27 28  1  1
 27 29  1  0
 29 30  1  0
 30 31  1  0
 31 32  1  1
  7  5  1  0
 31 10  1  0
 31 13  1  0
 27 15  1  0
 24 18  1  0
  1 33  1  0
  1 34  1  0
  1 35  1  0
  2 36  1  1
  3 37  1  0
  3 38  1  0
  4 39  1  0
  4 40  1  0
  5 41  1  1
  8 42  1  0
  8 43  1  0
  8 44  1  0
  9 45  1  0
  9 46  1  0
  9 47  1  0
 10 48  1  6
 11 49  1  0
 11 50  1  0
 12 51  1  0
 12 52  1  0
 14 53  1  0
 14 54  1  0
 14 55  1  0
 15 56  1  1
 16 57  1  0
 16 58  1  0
 17 59  1  0
 19 60  1  6
 20 61  1  0
 20 62  1  0
 21 63  1  0
 21 64  1  0
 22 65  1  6
 23 66  1  0
 25 67  1  0
 25 68  1  0
 25 69  1  0
 26 70  1  0
 26 71  1  0
 26 72  1  0
 28 73  1  0
 28 74  1  0
 28 75  1  0
 29 76  1  0
 29 77  1  0
 30 78  1  0
 30 79  1  0
 32 80  1  0
 32 81  1  0
 32 82  1  0
M  END
>  <meeko>  (12) 
{"is_sidechain": [false], "intermolecular_energy": 2.731, "internal_energy": -0.839}

$$$$
EPH_relaxed_0001_pdb2pqr_Repair_231_r2_0001_out
     RDKit          3D

 82 86  0  0  0  0  0  0  0  0999 V2000
   -0.8720   16.3540   -5.8480 C   0  0  0  0  0  0  0  0  0  0  0  0
    0.2210   15.6570   -6.6630 C   0  0  2  0  0  0  0  0  0  0  0  0
   -0.1810   15.4820   -8.1420 C   0  0  0  0  0  0  0  0  0  0  0  0
    0.4690   16.5030   -9.0800 C   0  0  0  0  0  0  0  0  0  0  0  0
    1.8690   16.1100   -9.4430 C   0  0  2  0  0  0  0  0  0  0  0  0
    2.3460   16.6640  -10.6760 O   0  0  0  0  0  0  0  0  0  0  0  0
    2.2110   15.2340  -10.6330 C   0  0  0  0  0  0  0  0  0  0  0  0
    1.1460   14.6960  -11.5370 C   0  0  0  0  0  0  0  0  0  0  0  0
    3.5180   14.5050  -10.6330 C   0  0  0  0  0  0  0  0  0  0  0  0
    0.5430   14.3010   -6.0470 C   0  0  1  0  0  0  0  0  0  0  0  0
    1.8080   13.6480   -6.6670 C   0  0  0  0  0  0  0  0  0  0  0  0
    2.5190   12.8780   -5.5250 C   0  0  0  0  0  0  0  0  0  0  0  0
    1.4810   12.8330   -4.3790 C   0  0  1  0  0  0  0  0  0  0  0  0
    0.5260   11.6550   -4.7490 C   0  0  0  0  0  0  0  0  0  0  0  0
    2.0550   12.6780   -2.9330 C   0  0  2  0  0  0  0  0  0  0  0  0
    2.8270   11.3730   -2.6730 C   0  0  0  0  0  0  0  0  0  0  0  0
    2.0040   10.2360   -2.1660 C   0  0  0  0  0  0  0  0  0  0  0  0
    0.7610   10.3340   -1.6590 C   0  0  0  0  0  0  0  0  0  0  0  0
    0.0950   11.7030   -1.4670 C   0  0  1  0  0  0  0  0  0  0  0  0
   -0.5490   11.7720   -0.0570 C   0  0  0  0  0  0  0  0  0  0  0  0
   -1.5080   10.6150    0.2050 C   0  0  0  0  0  0  0  0  0  0  0  0
   -0.7950    9.2730    0.0610 C   0  0  2  0  0  0  0  0  0  0  0  0
    0.1720    9.1500    1.1080 O   0  0  0  0  0  0  0  0  0  0  0  0
   -0.0990    9.0930   -1.3170 C   0  0  0  0  0  0  0  0  0  0  0  0
   -1.1710    8.9240   -2.4230 C   0  0  0  0  0  0  0  0  0  0  0  0
    0.6990    7.7620   -1.2790 C   0  0  0  0  0  0  0  0  0  0  0  0
    1.0050   12.9670   -1.7850 C   0  0  1  0  0  0  0  0  0  0  0  0
    1.8260   13.3640   -0.5200 C   0  0  0  0  0  0  0  0  0  0  0  0
    0.0790   14.1970   -2.1170 C   0  0  0  0  0  0  0  0  0  0  0  0
   -0.3570   14.3620   -3.5850 C   0  0  0  0  0  0  0  0  0  0  0  0
    0.8460   14.2630   -4.5280 C   0  0  2  0  0  0  0  0  0  0  0  0
    1.8140   15.4490   -4.1950 C   0  0  0  0  0  0  0  0  0  0  0  0
   -0.6683   16.2241   -4.7749 H   0  0  0  0  0  0  0  0  0  0  0  0
   -0.8835   17.4266   -6.0918 H   0  0  0  0  0  0  0  0  0  0  0  0
   -1.8493   15.9120   -6.0918 H   0  0  0  0  0  0  0  0  0  0  0  0
    1.1141   16.2986   -6.6370 H   0  0  0  0  0  0  0  0  0  0  0  0
    0.1164   14.4737   -8.4660 H   0  0  0  0  0  0  0  0  0  0  0  0
   -1.2684   15.6372   -8.2008 H   0  0  0  0  0  0  0  0  0  0  0  0
   -0.1308   16.5748   -9.9993 H   0  0  0  0  0  0  0  0  0  0  0  0
    0.5089   17.4707   -8.5586 H   0  0  0  0  0  0  0  0  0  0  0  0
    2.1534   16.0562   -8.3818 H   0  0  0  0  0  0  0  0  0  0  0  0
    0.3261   14.2818  -10.9318 H   0  0  0  0  0  0  0  0  0  0  0  0
    0.7597   15.5071  -12.1717 H   0  0  0  0  0  0  0  0  0  0  0  0
    1.5696   13.9038  -12.1717 H   0  0  0  0  0  0  0  0  0  0  0  0
    3.8382   14.3264   -9.5959 H   0  0  0  0  0  0  0  0  0  0  0  0
    3.4007   13.5420  -11.1515 H   0  0  0  0  0  0  0  0  0  0  0  0
    4.2757   15.1108  -11.1515 H   0  0  0  0  0  0  0  0  0  0  0  0
   -0.4006   13.7756   -6.2559 H   0  0  0  0  0  0  0  0  0  0  0  0
    1.5208   12.9538   -7.4705 H   0  0  0  0  0  0  0  0  0  0  0  0
    2.4718   14.4089   -7.1033 H   0  0  0  0  0  0  0  0  0  0  0  0
    2.7841   11.8607   -5.8489 H   0  0  0  0  0  0  0  0  0  0  0  0
    3.4584   13.3611   -5.2181 H   0  0  0  0  0  0  0  0  0  0  0  0
    0.1469   11.1873   -3.8284 H   0  0  0  0  0  0  0  0  0  0  0  0
   -0.3186   12.0394   -5.3397 H   0  0  0  0  0  0  0  0  0  0  0  0
    1.0768   10.9082   -5.3397 H   0  0  0  0  0  0  0  0  0  0  0  0
    2.8051   13.4815   -2.8899 H   0  0  0  0  0  0  0  0  0  0  0  0
    3.2935   11.0598   -3.6187 H   0  0  0  0  0  0  0  0  0  0  0  0
    3.5526   11.6017   -1.8785 H   0  0  0  0  0  0  0  0  0  0  0  0
    2.4514    9.2321   -2.2104 H   0  0  0  0  0  0  0  0  0  0  0  0
   -0.6865   11.7724   -2.2380 H   0  0  0  0  0  0  0  0  0  0  0  0
    0.2508   11.7450    0.6977 H   0  0  0  0  0  0  0  0  0  0  0  0
   -1.1282   12.7054    0.0004 H   0  0  0  0  0  0  0  0  0  0  0  0
   -1.9077   10.7027    1.2261 H   0  0  0  0  0  0  0  0  0  0  0  0
   -2.3233   10.6606   -0.5320 H   0  0  0  0  0  0  0  0  0  0  0  0
   -1.5591    8.4848    0.1312 H   0  0  0  0  0  0  0  0  0  0  0  0
    1.0500    9.2950    0.7170 H   0  0  0  0  0  0  0  0  0  0  0  0
   -2.1559    8.7687   -1.9584 H   0  0  0  0  0  0  0  0  0  0  0  0
   -1.1989    9.8288   -3.0479 H   0  0  0  0  0  0  0  0  0  0  0  0
   -0.9192    8.0545   -3.0479 H   0  0  0  0  0  0  0  0  0  0  0  0
    0.8744    7.4694   -0.2332 H   0  0  0  0  0  0  0  0  0  0  0  0
    0.1237    6.9749   -1.7884 H   0  0  0  0  0  0  0  0  0  0  0  0
    1.6643    7.8986   -1.7884 H   0  0  0  0  0  0  0  0  0  0  0  0
    1.2617   13.0911    0.3839 H   0  0  0  0  0  0  0  0  0  0  0  0
    2.7887   12.8319   -0.5258 H   0  0  0  0  0  0  0  0  0  0  0  0
    2.0067   14.4490   -0.5258 H   0  0  0  0  0  0  0  0  0  0  0  0
   -0.8321   14.1015   -1.5080 H   0  0  0  0  0  0  0  0  0  0  0  0
    0.6899   15.0848   -1.8967 H   0  0  0  0  0  0  0  0  0  0  0  0
   -1.0783   13.5708   -3.8374 H   0  0  0  0  0  0  0  0  0  0  0  0
   -0.8166   15.3541   -3.7053 H   0  0  0  0  0  0  0  0  0  0  0  0
    1.9012   15.5558   -3.1037 H   0  0  0  0  0  0  0  0  0  0  0  0
    2.8060   15.2441   -4.6238 H   0  0  0  0  0  0  0  0  0  0  0  0
    1.4144   16.3799   -4.6238 H   0  0  0  0  0  0  0  0  0  0  0  0
  1  2  1  0
  2  3  1  0
  3  4  1  0
  4  5  1  0
  5  6  1  0
  6  7  1  0
  7  8  1  0
  7  9  1  0
  2 10  1  0
 10 11  1  0
 11 12  1  0
 12 13  1  0
 13 14  1  6
 13 15  1  0
 15 16  1  0
 16 17  1  0
 17 18  2  0
 18 19  1  0
 19 20  1  0
 20 21  1  0
 21 22  1  0
 22 23  1  0
 22 24  1  0
 24 25  1  0
 24 26  1  0
 19 27  1  0
 27 28  1  1
 27 29  1  0
 29 30  1  0
 30 31  1  0
 31 32  1  1
  7  5  1  0
 31 10  1  0
 31 13  1  0
 27 15  1  0
 24 18  1  0
  1 33  1  0
  1 34  1  0
  1 35  1  0
  2 36  1  6
  3 37  1  0
  3 38  1  0
  4 39  1  0
  4 40  1  0
  5 41  1  1
  8 42  1  0
  8 43  1  0
  8 44  1  0
  9 45  1  0
  9 46  1  0
  9 47  1  0
 10 48  1  1
 11 49  1  0
 11 50  1  0
 12 51  1  0
 12 52  1  0
 14 53  1  0
 14 54  1  0
 14 55  1  0
 15 56  1  6
 16 57  1  0
 16 58  1  0
 17 59  1  0
 19 60  1  6
 20 61  1  0
 20 62  1  0
 21 63  1  0
 21 64  1  0
 22 65  1  1
 23 66  1  0
 25 67  1  0
 25 68  1  0
 25 69  1  0
 26 70  1  0
 26 71  1  0
 26 72  1  0
 28 73  1  0
 28 74  1  0
 28 75  1  0
 29 76  1  0
 29 77  1  0
 30 78  1  0
 30 79  1  0
 32 80  1  0
 32 81  1  0
 32 82  1  0
M  END
>  <meeko>  (13) 
{"is_sidechain": [false], "intermolecular_energy": 2.731, "internal_energy": -0.839}

$$$$
EPH_relaxed_0001_pdb2pqr_Repair_231_r2_0001_out
     RDKit          3D

 82 86  0  0  0  0  0  0  0  0999 V2000
   -0.0170    9.2450   -2.0830 C   0  0  0  0  0  0  0  0  0  0  0  0
    0.9690   10.2710   -2.6480 C   0  0  2  0  0  0  0  0  0  0  0  0
    2.3800    9.6790   -2.8350 C   0  0  0  0  0  0  0  0  0  0  0  0
    3.2400   10.4460   -3.8430 C   0  0  0  0  0  0  0  0  0  0  0  0
    4.6340   10.6570   -3.3340 C   0  0  2  0  0  0  0  0  0  0  0  0
    5.2550   11.8720   -3.7750 O   0  0  0  0  0  0  0  0  0  0  0  0
    5.8610   10.6500   -4.2270 C   0  0  0  0  0  0  0  0  0  0  0  0
    5.7510   10.4250   -5.7030 C   0  0  0  0  0  0  0  0  0  0  0  0
    7.1950   10.3740   -3.6080 C   0  0  0  0  0  0  0  0  0  0  0  0
    1.0320   11.4890   -1.7330 C   0  0  1  0  0  0  0  0  0  0  0  0
    2.1230   11.3570   -0.6370 C   0  0  0  0  0  0  0  0  0  0  0  0
    2.6990   12.7770   -0.4060 C   0  0  0  0  0  0  0  0  0  0  0  0
    1.7060   13.7220   -1.1220 C   0  0  1  0  0  0  0  0  0  0  0  0
    0.5250   13.9000   -0.1170 C   0  0  0  0  0  0  0  0  0  0  0  0
    2.2780   15.1000   -1.5900 C   0  0  2  0  0  0  0  0  0  0  0  0
    2.7810   16.0150   -0.4600 C   0  0  0  0  0  0  0  0  0  0  0  0
    1.7630   16.9480    0.1070 C   0  0  0  0  0  0  0  0  0  0  0  0
    0.5800   17.2510   -0.4580 C   0  0  0  0  0  0  0  0  0  0  0  0
    0.2050   16.7070   -1.8430 C   0  0  1  0  0  0  0  0  0  0  0  0
   -0.3720   17.8550   -2.7110 C   0  0  0  0  0  0  0  0  0  0  0  0
   -1.5350   18.5740   -2.0330 C   0  0  0  0  0  0  0  0  0  0  0  0
   -1.1080   19.1510   -0.6860 C   0  0  2  0  0  0  0  0  0  0  0  0
   -0.1550   20.1940   -0.9120 O   0  0  0  0  0  0  0  0  0  0  0  0
   -0.5010   18.0870    0.2720 C   0  0  0  0  0  0  0  0  0  0  0  0
   -1.6150   17.1260    0.7560 C   0  0  0  0  0  0  0  0  0  0  0  0
    0.0180   18.8230    1.5360 C   0  0  0  0  0  0  0  0  0  0  0  0
    1.3390   15.8840   -2.5940 C   0  0  1  0  0  0  0  0  0  0  0  0
    2.2580   16.8550   -3.3960 C   0  0  0  0  0  0  0  0  0  0  0  0
    0.6670   14.9320   -3.6530 C   0  0  0  0  0  0  0  0  0  0  0  0
    0.2320   13.5400   -3.1580 C   0  0  0  0  0  0  0  0  0  0  0  0
    1.3640   12.8530   -2.3870 C   0  0  2  0  0  0  0  0  0  0  0  0
    2.5580   12.6410   -3.3790 C   0  0  0  0  0  0  0  0  0  0  0  0
    0.0121    9.2752   -0.9838 H   0  0  0  0  0  0  0  0  0  0  0  0
   -1.0333    9.4836   -2.4296 H   0  0  0  0  0  0  0  0  0  0  0  0
    0.2619    8.2390   -2.4296 H   0  0  0  0  0  0  0  0  0  0  0  0
    0.6028   10.5701   -3.6412 H   0  0  0  0  0  0  0  0  0  0  0  0
    2.8928    9.6894   -1.8619 H   0  0  0  0  0  0  0  0  0  0  0  0
    2.2518    8.6607   -3.2307 H   0  0  0  0  0  0  0  0  0  0  0  0
    3.2857    9.8736   -4.7812 H   0  0  0  0  0  0  0  0  0  0  0  0
    2.7809   11.4323   -4.0055 H   0  0  0  0  0  0  0  0  0  0  0  0
    4.3984   10.1263   -2.3998 H   0  0  0  0  0  0  0  0  0  0  0  0
    5.2750    9.4513   -5.8910 H   0  0  0  0  0  0  0  0  0  0  0  0
    5.1417   11.2237   -6.1512 H   0  0  0  0  0  0  0  0  0  0  0  0
    6.7555   10.4347   -6.1512 H   0  0  0  0  0  0  0  0  0  0  0  0
    7.1018   10.3933   -2.5121 H   0  0  0  0  0  0  0  0  0  0  0  0
    7.5500    9.3834   -3.9284 H   0  0  0  0  0  0  0  0  0  0  0  0
    7.9139   11.1424   -3.9284 H   0  0  0  0  0  0  0  0  0  0  0  0
   -0.0026   11.4927   -1.3595 H   0  0  0  0  0  0  0  0  0  0  0  0
    1.6805   10.9718    0.2935 H   0  0  0  0  0  0  0  0  0  0  0  0
    2.9121   10.6565   -0.9477 H   0  0  0  0  0  0  0  0  0  0  0  0
    2.7472   13.0064    0.6687 H   0  0  0  0  0  0  0  0  0  0  0  0
    3.7241   12.8792   -0.7917 H   0  0  0  0  0  0  0  0  0  0  0  0
    0.9079   13.8423    0.9126 H   0  0  0  0  0  0  0  0  0  0  0  0
    0.0513   14.8797   -0.2777 H   0  0  0  0  0  0  0  0  0  0  0  0
   -0.2164   13.1035   -0.2777 H   0  0  0  0  0  0  0  0  0  0  0  0
    3.1737   14.8041   -2.1558 H   0  0  0  0  0  0  0  0  0  0  0  0
    3.1482   15.3759    0.3565 H   0  0  0  0  0  0  0  0  0  0  0  0
    3.5597   16.6502   -0.9072 H   0  0  0  0  0  0  0  0  0  0  0  0
    1.9999   17.4284    1.0678 H   0  0  0  0  0  0  0  0  0  0  0  0
   -0.5688   15.9442   -1.6717 H   0  0  0  0  0  0  0  0  0  0  0  0
    0.4274   18.5847   -2.9071 H   0  0  0  0  0  0  0  0  0  0  0  0
   -0.7520   17.4104   -3.6426 H   0  0  0  0  0  0  0  0  0  0  0  0
   -1.8801   19.3922   -2.6821 H   0  0  0  0  0  0  0  0  0  0  0  0
   -2.3454   17.8496   -1.8640 H   0  0  0  0  0  0  0  0  0  0  0  0
   -2.0113   19.5386   -0.1923 H   0  0  0  0  0  0  0  0  0  0  0  0
   -0.4630   20.7130   -1.6740 H   0  0  0  0  0  0  0  0  0  0  0  0
   -1.6333   17.1102    1.8557 H   0  0  0  0  0  0  0  0  0  0  0  0
   -2.5881   17.4727    0.3780 H   0  0  0  0  0  0  0  0  0  0  0  0
   -1.4148   16.1126    0.3780 H   0  0  0  0  0  0  0  0  0  0  0  0
   -0.3461   18.3066    2.4364 H   0  0  0  0  0  0  0  0  0  0  0  0
    1.1180   18.8244    1.5337 H   0  0  0  0  0  0  0  0  0  0  0  0
   -0.3500   19.8596    1.5337 H   0  0  0  0  0  0  0  0  0  0  0  0
    2.8409   17.4708   -2.6953 H   0  0  0  0  0  0  0  0  0  0  0  0
    2.9431   16.2723   -4.0293 H   0  0  0  0  0  0  0  0  0  0  0  0
    1.6385   17.5070   -4.0293 H   0  0  0  0  0  0  0  0  0  0  0  0
   -0.2276   15.4425   -4.0390 H   0  0  0  0  0  0  0  0  0  0  0  0
    1.4478   14.7396   -4.4035 H   0  0  0  0  0  0  0  0  0  0  0  0
   -0.6394   13.6498   -2.4957 H   0  0  0  0  0  0  0  0  0  0  0  0
   -0.0231   12.9215   -4.0311 H   0  0  0  0  0  0  0  0  0  0  0  0
    3.4840   12.4766   -2.8084 H   0  0  0  0  0  0  0  0  0  0  0  0
    2.3572   11.7645   -4.0125 H   0  0  0  0  0  0  0  0  0  0  0  0
    2.6712   13.5331   -4.0125 H   0  0  0  0  0  0  0  0  0  0  0  0
  1  2  1  0
  2  3  1  0
  3  4  1  0
  4  5  1  0
  5  6  1  0
  6  7  1  0
  7  8  1  0
  7  9  1  0
  2 10  1  0
 10 11  1  0
 11 12  1  0
 12 13  1  0
 13 14  1  1
 13 15  1  0
 15 16  1  0
 16 17  1  0
 17 18  2  0
 18 19  1  0
 19 20  1  0
 20 21  1  0
 21 22  1  0
 22 23  1  0
 22 24  1  0
 24 25  1  0
 24 26  1  0
 19 27  1  0
 27 28  1  6
 27 29  1  0
 29 30  1  0
 30 31  1  0
 31 32  1  6
  7  5  1  0
 31 10  1  0
 31 13  1  0
 27 15  1  0
 24 18  1  0
  1 33  1  0
  1 34  1  0
  1 35  1  0
  2 36  1  6
  3 37  1  0
  3 38  1  0
  4 39  1  0
  4 40  1  0
  5 41  1  1
  8 42  1  0
  8 43  1  0
  8 44  1  0
  9 45  1  0
  9 46  1  0
  9 47  1  0
 10 48  1  1
 11 49  1  0
 11 50  1  0
 12 51  1  0
 12 52  1  0
 14 53  1  0
 14 54  1  0
 14 55  1  0
 15 56  1  6
 16 57  1  0
 16 58  1  0
 17 59  1  0
 19 60  1  1
 20 61  1  0
 20 62  1  0
 21 63  1  0
 21 64  1  0
 22 65  1  1
 23 66  1  0
 25 67  1  0
 25 68  1  0
 25 69  1  0
 26 70  1  0
 26 71  1  0
 26 72  1  0
 28 73  1  0
 28 74  1  0
 28 75  1  0
 29 76  1  0
 29 77  1  0
 30 78  1  0
 30 79  1  0
 32 80  1  0
 32 81  1  0
 32 82  1  0
M  END
>  <meeko>  (14) 
{"is_sidechain": [false], "intermolecular_energy": 2.731, "internal_energy": -0.839}

$$$$
EPH_relaxed_0001_pdb2pqr_Repair_231_r2_0001_out
     RDKit          3D

 82 86  0  0  0  0  0  0  0  0999 V2000
   -1.9900    7.7610   -2.1060 C   0  0  0  0  0  0  0  0  0  0  0  0
   -2.1960    8.4580   -0.7580 C   0  0  2  0  0  0  0  0  0  0  0  0
   -3.6760    8.4610   -0.3260 C   0  0  0  0  0  0  0  0  0  0  0  0
   -4.6210    7.8500   -1.3640 C   0  0  0  0  0  0  0  0  0  0  0  0
   -5.7740    7.1450   -0.7160 C   0  0  2  0  0  0  0  0  0  0  0  0
   -6.3430    6.0850   -1.4970 O   0  0  0  0  0  0  0  0  0  0  0  0
   -7.1970    7.2120   -1.2400 C   0  0  0  0  0  0  0  0  0  0  0  0
   -7.5420    8.0050   -2.4610 C   0  0  0  0  0  0  0  0  0  0  0  0
   -8.3210    6.9130   -0.2970 C   0  0  0  0  0  0  0  0  0  0  0  0
   -1.6700    9.8870   -0.8260 C   0  0  1  0  0  0  0  0  0  0  0  0
   -1.2280   10.4280    0.5600 C   0  0  0  0  0  0  0  0  0  0  0  0
   -0.0080   11.3510    0.3110 C   0  0  0  0  0  0  0  0  0  0  0  0
    0.0060   11.5750   -1.2190 C   0  0  1  0  0  0  0  0  0  0  0  0
   -1.0520   12.6950   -1.4710 C   0  0  0  0  0  0  0  0  0  0  0  0
    1.3900   11.9360   -1.8520 C   0  0  2  0  0  0  0  0  0  0  0  0
    2.0070   13.2570   -1.3620 C   0  0  0  0  0  0  0  0  0  0  0  0
    1.6430   14.4650   -2.1600 C   0  0  0  0  0  0  0  0  0  0  0  0
    1.0890   14.4550   -3.3860 C   0  0  0  0  0  0  0  0  0  0  0  0
    0.8610   13.1360   -4.1360 C   0  0  1  0  0  0  0  0  0  0  0  0
    1.3520   13.2830   -5.6010 C   0  0  0  0  0  0  0  0  0  0  0  0
    0.7220   14.4750   -6.3130 C   0  0  0  0  0  0  0  0  0  0  0  0
    1.0190   15.7740   -5.5680 C   0  0  2  0  0  0  0  0  0  0  0  0
    2.4220   16.0410   -5.6480 O   0  0  0  0  0  0  0  0  0  0  0  0
    0.5770   15.7420   -4.0790 C   0  0  0  0  0  0  0  0  0  0  0  0
   -0.9700   15.7570   -3.9940 C   0  0  0  0  0  0  0  0  0  0  0  0
    1.0600   17.0560   -3.4080 C   0  0  0  0  0  0  0  0  0  0  0  0
    1.4280   11.8300   -3.4300 C   0  0  1  0  0  0  0  0  0  0  0  0
    2.9210   11.6170   -3.8260 C   0  0  0  0  0  0  0  0  0  0  0  0
    0.6430   10.5750   -3.9650 C   0  0  0  0  0  0  0  0  0  0  0  0
   -0.6540   10.1980   -3.2230 C   0  0  0  0  0  0  0  0  0  0  0  0
   -0.4240   10.1450   -1.7100 C   0  0  2  0  0  0  0  0  0  0  0  0
    0.6190    9.0120   -1.4240 C   0  0  0  0  0  0  0  0  0  0  0  0
   -1.6819    6.7187   -1.9366 H   0  0  0  0  0  0  0  0  0  0  0  0
   -2.9314    7.7773   -2.6748 H   0  0  0  0  0  0  0  0  0  0  0  0
   -1.2087    8.2864   -2.6748 H   0  0  0  0  0  0  0  0  0  0  0  0
   -1.6330    7.8903   -0.0025 H   0  0  0  0  0  0  0  0  0  0  0  0
   -3.7666    7.8859    0.6073 H   0  0  0  0  0  0  0  0  0  0  0  0
   -3.9724    9.5129   -0.2010 H   0  0  0  0  0  0  0  0  0  0  0  0
   -5.0100    8.6524   -2.0081 H   0  0  0  0  0  0  0  0  0  0  0  0
   -4.0545    7.1128   -1.9519 H   0  0  0  0  0  0  0  0  0  0  0  0
   -5.3470    7.3147    0.2834 H   0  0  0  0  0  0  0  0  0  0  0  0
   -7.9642    8.9754   -2.1608 H   0  0  0  0  0  0  0  0  0  0  0  0
   -6.6342    8.1696   -3.0599 H   0  0  0  0  0  0  0  0  0  0  0  0
   -8.2813    7.4530   -3.0599 H   0  0  0  0  0  0  0  0  0  0  0  0
   -7.9650    7.0077    0.7395 H   0  0  0  0  0  0  0  0  0  0  0  0
   -9.1427    7.6238   -0.4689 H   0  0  0  0  0  0  0  0  0  0  0  0
   -8.6810    5.8879   -0.4689 H   0  0  0  0  0  0  0  0  0  0  0  0
   -2.5490   10.3862   -1.2597 H   0  0  0  0  0  0  0  0  0  0  0  0
   -2.0467   10.9987    1.0226 H   0  0  0  0  0  0  0  0  0  0  0  0
   -0.9678    9.6043    1.2410 H   0  0  0  0  0  0  0  0  0  0  0  0
   -0.1292   12.3066    0.8422 H   0  0  0  0  0  0  0  0  0  0  0  0
    0.9307   10.9092    0.6765 H   0  0  0  0  0  0  0  0  0  0  0  0
   -1.4154   13.0797   -0.5067 H   0  0  0  0  0  0  0  0  0  0  0  0
   -0.5901   13.5140   -2.0419 H   0  0  0  0  0  0  0  0  0  0  0  0
   -1.8959   12.2804   -2.0419 H   0  0  0  0  0  0  0  0  0  0  0  0
    2.0421   11.1401   -1.4630 H   0  0  0  0  0  0  0  0  0  0  0  0
    1.6776   13.4223   -0.3256 H   0  0  0  0  0  0  0  0  0  0  0  0
    3.0960   13.1410   -1.4647 H   0  0  0  0  0  0  0  0  0  0  0  0
    1.8449   15.4469   -1.7071 H   0  0  0  0  0  0  0  0  0  0  0  0
   -0.2249   12.9608   -4.1217 H   0  0  0  0  0  0  0  0  0  0  0  0
    2.4443   13.4129   -5.5953 H   0  0  0  0  0  0  0  0  0  0  0  0
    1.0547   12.3744   -6.1451 H   0  0  0  0  0  0  0  0  0  0  0  0
    1.1305   14.5428   -7.3321 H   0  0  0  0  0  0  0  0  0  0  0  0
   -0.3679   14.3295   -6.3448 H   0  0  0  0  0  0  0  0  0  0  0  0
    0.4348   16.5713   -6.0506 H   0  0  0  0  0  0  0  0  0  0  0  0
    2.8660   15.4820   -4.9870 H   0  0  0  0  0  0  0  0  0  0  0  0
   -1.2792   15.7600   -2.9384 H   0  0  0  0  0  0  0  0  0  0  0  0
   -1.3558   16.6589   -4.4916 H   0  0  0  0  0  0  0  0  0  0  0  0
   -1.3733   14.8627   -4.4916 H   0  0  0  0  0  0  0  0  0  0  0  0
    1.0194   16.9456   -2.3143 H   0  0  0  0  0  0  0  0  0  0  0  0
    2.0944   17.2668   -3.7171 H   0  0  0  0  0  0  0  0  0  0  0  0
    0.4084   17.8866   -3.7171 H   0  0  0  0  0  0  0  0  0  0  0  0
    3.5328   11.5297   -2.9160 H   0  0  0  0  0  0  0  0  0  0  0  0
    3.0149   10.6964   -4.4207 H   0  0  0  0  0  0  0  0  0  0  0  0
    3.2686   12.4747   -4.4207 H   0  0  0  0  0  0  0  0  0  0  0  0
    0.3808   10.7695   -5.0154 H   0  0  0  0  0  0  0  0  0  0  0  0
    1.3215    9.7234   -3.8091 H   0  0  0  0  0  0  0  0  0  0  0  0
   -1.4262   10.9497   -3.4435 H   0  0  0  0  0  0  0  0  0  0  0  0
   -0.9767    9.2032   -3.5639 H   0  0  0  0  0  0  0  0  0  0  0  0
    0.7349    8.8861   -0.3374 H   0  0  0  0  0  0  0  0  0  0  0  0
    0.2665    8.0688   -1.8669 H   0  0  0  0  0  0  0  0  0  0  0  0
    1.5881    9.2854   -1.8669 H   0  0  0  0  0  0  0  0  0  0  0  0
  1  2  1  0
  2  3  1  0
  3  4  1  0
  4  5  1  0
  5  6  1  0
  6  7  1  0
  7  8  1  0
  7  9  1  0
  2 10  1  0
 10 11  1  0
 11 12  1  0
 12 13  1  0
 13 14  1  1
 13 15  1  0
 15 16  1  0
 16 17  1  0
 17 18  2  0
 18 19  1  0
 19 20  1  0
 20 21  1  0
 21 22  1  0
 22 23  1  0
 22 24  1  0
 24 25  1  0
 24 26  1  0
 19 27  1  0
 27 28  1  6
 27 29  1  0
 29 30  1  0
 30 31  1  0
 31 32  1  6
  7  5  1  0
 31 10  1  0
 31 13  1  0
 27 15  1  0
 24 18  1  0
  1 33  1  0
  1 34  1  0
  1 35  1  0
  2 36  1  1
  3 37  1  0
  3 38  1  0
  4 39  1  0
  4 40  1  0
  5 41  1  1
  8 42  1  0
  8 43  1  0
  8 44  1  0
  9 45  1  0
  9 46  1  0
  9 47  1  0
 10 48  1  6
 11 49  1  0
 11 50  1  0
 12 51  1  0
 12 52  1  0
 14 53  1  0
 14 54  1  0
 14 55  1  0
 15 56  1  1
 16 57  1  0
 16 58  1  0
 17 59  1  0
 19 60  1  6
 20 61  1  0
 20 62  1  0
 21 63  1  0
 21 64  1  0
 22 65  1  6
 23 66  1  0
 25 67  1  0
 25 68  1  0
 25 69  1  0
 26 70  1  0
 26 71  1  0
 26 72  1  0
 28 73  1  0
 28 74  1  0
 28 75  1  0
 29 76  1  0
 29 77  1  0
 30 78  1  0
 30 79  1  0
 32 80  1  0
 32 81  1  0
 32 82  1  0
M  END
>  <meeko>  (15) 
{"is_sidechain": [false], "intermolecular_energy": 2.731, "internal_energy": -0.839}

$$$$
EPH_relaxed_0001_pdb2pqr_Repair_231_r2_0001_out
     RDKit          3D

 82 86  0  0  0  0  0  0  0  0999 V2000
    0.2690    9.8630   -4.6900 C   0  0  0  0  0  0  0  0  0  0  0  0
    1.3040   10.5440   -3.7900 C   0  0  2  0  0  0  0  0  0  0  0  0
    1.6530    9.6890   -2.5550 C   0  0  0  0  0  0  0  0  0  0  0  0
    0.5680    8.6760   -2.1820 C   0  0  0  0  0  0  0  0  0  0  0  0
   -0.2620    9.1510   -1.0280 C   0  0  2  0  0  0  0  0  0  0  0  0
   -0.7890    8.1070   -0.2000 O   0  0  0  0  0  0  0  0  0  0  0  0
   -1.7540    8.9000   -0.9110 C   0  0  0  0  0  0  0  0  0  0  0  0
   -2.5030    8.1460   -1.9640 C   0  0  0  0  0  0  0  0  0  0  0  0
   -2.5640    9.7980   -0.0290 C   0  0  0  0  0  0  0  0  0  0  0  0
    0.7900   11.9100   -3.3500 C   0  0  1  0  0  0  0  0  0  0  0  0
   -0.7240   11.8980   -3.0100 C   0  0  0  0  0  0  0  0  0  0  0  0
   -0.9280   12.8910   -1.8380 C   0  0  0  0  0  0  0  0  0  0  0  0
    0.3990   13.6820   -1.7620 C   0  0  1  0  0  0  0  0  0  0  0  0
    0.2800   14.7730   -2.8720 C   0  0  0  0  0  0  0  0  0  0  0  0
    0.7520   14.3090   -0.3730 C   0  0  2  0  0  0  0  0  0  0  0  0
   -0.2430   15.3660    0.1370 C   0  0  0  0  0  0  0  0  0  0  0  0
    0.0610   16.7720   -0.2590 C   0  0  0  0  0  0  0  0  0  0  0  0
    1.2350   17.2090   -0.7510 C   0  0  0  0  0  0  0  0  0  0  0  0
    2.4430   16.2690   -0.8610 C   0  0  1  0  0  0  0  0  0  0  0  0
    3.7050   16.9810   -0.3090 C   0  0  0  0  0  0  0  0  0  0  0  0
    3.9550   18.3310   -0.9750 C   0  0  0  0  0  0  0  0  0  0  0  0
    2.7550   19.2580   -0.7940 C   0  0  2  0  0  0  0  0  0  0  0  0
    2.6320   19.5870    0.5930 O   0  0  0  0  0  0  0  0  0  0  0  0
    1.4230   18.6430   -1.3060 C   0  0  0  0  0  0  0  0  0  0  0  0
    1.4450   18.5660   -2.8530 C   0  0  0  0  0  0  0  0  0  0  0  0
    0.2740   19.6190   -0.9370 C   0  0  0  0  0  0  0  0  0  0  0  0
    2.2460   14.8150   -0.2510 C   0  0  1  0  0  0  0  0  0  0  0  0
    2.5900   14.8240    1.2700 C   0  0  0  0  0  0  0  0  0  0  0  0
    3.2690   13.8300   -0.9320 C   0  0  0  0  0  0  0  0  0  0  0  0
    2.8150   13.1500   -2.2380 C   0  0  0  0  0  0  0  0  0  0  0  0
    1.4230   12.5330   -2.0800 C   0  0  2  0  0  0  0  0  0  0  0  0
    1.5160   11.4160   -0.9850 C   0  0  0  0  0  0  0  0  0  0  0  0
   -0.4880    9.3649   -4.0664 H   0  0  0  0  0  0  0  0  0  0  0  0
   -0.2179   10.6178   -5.3250 H   0  0  0  0  0  0  0  0  0  0  0  0
    0.7694    9.1172   -5.3250 H   0  0  0  0  0  0  0  0  0  0  0  0
    2.2258   10.6647   -4.3779 H   0  0  0  0  0  0  0  0  0  0  0  0
    2.5833    9.1405   -2.7639 H   0  0  0  0  0  0  0  0  0  0  0  0
    1.7549   10.3790   -1.7044 H   0  0  0  0  0  0  0  0  0  0  0  0
   -0.0873    8.5193   -3.0515 H   0  0  0  0  0  0  0  0  0  0  0  0
    1.0618    7.7387   -1.8859 H   0  0  0  0  0  0  0  0  0  0  0  0
    0.3410   10.0669   -0.9410 H   0  0  0  0  0  0  0  0  0  0  0  0
   -3.2010    7.4434   -1.4853 H   0  0  0  0  0  0  0  0  0  0  0  0
   -3.0665    8.8531   -2.5904 H   0  0  0  0  0  0  0  0  0  0  0  0
   -1.7922    7.5872   -2.5904 H   0  0  0  0  0  0  0  0  0  0  0  0
   -2.3531    9.5642    1.0250 H   0  0  0  0  0  0  0  0  0  0  0  0
   -2.3002   10.8464   -0.2319 H   0  0  0  0  0  0  0  0  0  0  0  0
   -3.6340    9.6433   -0.2319 H   0  0  0  0  0  0  0  0  0  0  0  0
    1.0617   12.5028   -4.2359 H   0  0  0  0  0  0  0  0  0  0  0  0
   -1.3108   12.2178   -3.8837 H   0  0  0  0  0  0  0  0  0  0  0  0
   -1.0582   10.8872   -2.7334 H   0  0  0  0  0  0  0  0  0  0  0  0
   -1.7716   13.5664   -2.0435 H   0  0  0  0  0  0  0  0  0  0  0  0
   -1.1633   12.3790   -0.8933 H   0  0  0  0  0  0  0  0  0  0  0  0
    0.1721   15.7624   -2.4036 H   0  0  0  0  0  0  0  0  0  0  0  0
    1.1849   14.7601   -3.4973 H   0  0  0  0  0  0  0  0  0  0  0  0
   -0.6008   14.5653   -3.4973 H   0  0  0  0  0  0  0  0  0  0  0  0
    0.6500   13.4500    0.3065 H   0  0  0  0  0  0  0  0  0  0  0  0
   -1.2393   15.1110   -0.2533 H   0  0  0  0  0  0  0  0  0  0  0  0
   -0.1792   15.3388    1.2348 H   0  0  0  0  0  0  0  0  0  0  0  0
   -0.7421   17.5140   -0.1387 H   0  0  0  0  0  0  0  0  0  0  0  0
    2.5716   16.0619   -1.9336 H   0  0  0  0  0  0  0  0  0  0  0  0
    3.5757   17.1398    0.7718 H   0  0  0  0  0  0  0  0  0  0  0  0
    4.5713   16.3379   -0.5235 H   0  0  0  0  0  0  0  0  0  0  0  0
    4.8421   18.7975   -0.5218 H   0  0  0  0  0  0  0  0  0  0  0  0
    4.1143   18.1681   -2.0511 H   0  0  0  0  0  0  0  0  0  0  0  0
    2.9381   20.1572   -1.4006 H   0  0  0  0  0  0  0  0  0  0  0  0
    1.8360   20.1360    0.6950 H   0  0  0  0  0  0  0  0  0  0  0  0
    1.7347   17.5519   -3.1656 H   0  0  0  0  0  0  0  0  0  0  0  0
    0.4444   18.7990   -3.2460 H   0  0  0  0  0  0  0  0  0  0  0  0
    2.1715   19.2924   -3.2460 H   0  0  0  0  0  0  0  0  0  0  0  0
    0.1905   19.6899    0.1575 H   0  0  0  0  0  0  0  0  0  0  0  0
    0.4901   20.6139   -1.3535 H   0  0  0  0  0  0  0  0  0  0  0  0
   -0.6729   19.2449   -1.3535 H   0  0  0  0  0  0  0  0  0  0  0  0
    1.6597   14.7997    1.8565 H   0  0  0  0  0  0  0  0  0  0  0  0
    3.2000   13.9415    1.5132 H   0  0  0  0  0  0  0  0  0  0  0  0
    3.1530   15.7372    1.5132 H   0  0  0  0  0  0  0  0  0  0  0  0
    4.1827   14.4007   -1.1543 H   0  0  0  0  0  0  0  0  0  0  0  0
    3.4015   13.0095   -0.2114 H   0  0  0  0  0  0  0  0  0  0  0  0
    2.7871   13.8993   -3.0429 H   0  0  0  0  0  0  0  0  0  0  0  0
    3.5279   12.3486   -2.4821 H   0  0  0  0  0  0  0  0  0  0  0  0
    1.4776   11.8769    0.0131 H   0  0  0  0  0  0  0  0  0  0  0  0
    0.6728   10.7190   -1.0997 H   0  0  0  0  0  0  0  0  0  0  0  0
    2.4629   10.8680   -1.0997 H   0  0  0  0  0  0  0  0  0  0  0  0
  1  2  1  0
  2  3  1  0
  3  4  1  0
  4  5  1  0
  5  6  1  0
  6  7  1  0
  7  8  1  0
  7  9  1  0
  2 10  1  0
 10 11  1  0
 11 12  1  0
 12 13  1  0
 13 14  1  6
 13 15  1  0
 15 16  1  0
 16 17  1  0
 17 18  2  0
 18 19  1  0
 19 20  1  0
 20 21  1  0
 21 22  1  0
 22 23  1  0
 22 24  1  0
 24 25  1  0
 24 26  1  0
 19 27  1  0
 27 28  1  1
 27 29  1  0
 29 30  1  0
 30 31  1  0
 31 32  1  1
  7  5  1  0
 31 10  1  0
 31 13  1  0
 27 15  1  0
 24 18  1  0
  1 33  1  0
  1 34  1  0
  1 35  1  0
  2 36  1  6
  3 37  1  0
  3 38  1  0
  4 39  1  0
  4 40  1  0
  5 41  1  1
  8 42  1  0
  8 43  1  0
  8 44  1  0
  9 45  1  0
  9 46  1  0
  9 47  1  0
 10 48  1  6
 11 49  1  0
 11 50  1  0
 12 51  1  0
 12 52  1  0
 14 53  1  0
 14 54  1  0
 14 55  1  0
 15 56  1  1
 16 57  1  0
 16 58  1  0
 17 59  1  0
 19 60  1  6
 20 61  1  0
 20 62  1  0
 21 63  1  0
 21 64  1  0
 22 65  1  6
 23 66  1  0
 25 67  1  0
 25 68  1  0
 25 69  1  0
 26 70  1  0
 26 71  1  0
 26 72  1  0
 28 73  1  0
 28 74  1  0
 28 75  1  0
 29 76  1  0
 29 77  1  0
 30 78  1  0
 30 79  1  0
 32 80  1  0
 32 81  1  0
 32 82  1  0
M  END
>  <meeko>  (16) 
{"is_sidechain": [false], "intermolecular_energy": 2.731, "internal_energy": -0.839}

$$$$
EPH_relaxed_0001_pdb2pqr_Repair_231_r2_0001_out
     RDKit          3D

 82 86  0  0  0  0  0  0  0  0999 V2000
    0.8980   14.8980   -2.6310 C   0  0  0  0  0  0  0  0  0  0  0  0
    1.1720   14.2220   -3.9770 C   0  0  2  0  0  0  0  0  0  0  0  0
    0.4760   14.9490   -5.1450 C   0  0  0  0  0  0  0  0  0  0  0  0
    1.0780   14.6280   -6.5160 C   0  0  0  0  0  0  0  0  0  0  0  0
    0.8500   15.7390   -7.4950 C   0  0  2  0  0  0  0  0  0  0  0  0
    0.3650   15.3180   -8.7770 O   0  0  0  0  0  0  0  0  0  0  0  0
    1.6690   15.9210   -8.7590 C   0  0  0  0  0  0  0  0  0  0  0  0
    2.7790   14.9810   -9.1120 C   0  0  0  0  0  0  0  0  0  0  0  0
    1.7150   17.2760   -9.3930 C   0  0  0  0  0  0  0  0  0  0  0  0
    0.7220   12.7660   -3.9280 C   0  0  1  0  0  0  0  0  0  0  0  0
    1.8550   11.7780   -4.3130 C   0  0  0  0  0  0  0  0  0  0  0  0
    1.6570   10.5090   -3.4450 C   0  0  0  0  0  0  0  0  0  0  0  0
    0.2430   10.6690   -2.8380 C   0  0  1  0  0  0  0  0  0  0  0  0
   -0.7320   10.2040   -3.9640 C   0  0  0  0  0  0  0  0  0  0  0  0
   -0.0230    9.9130   -1.4960 C   0  0  2  0  0  0  0  0  0  0  0  0
    0.0830    8.3800   -1.5780 C   0  0  0  0  0  0  0  0  0  0  0  0
   -1.1890    7.6700   -1.9040 C   0  0  0  0  0  0  0  0  0  0  0  0
   -2.4220    8.2060   -1.8430 C   0  0  0  0  0  0  0  0  0  0  0  0
   -2.6360    9.6310   -1.3170 C   0  0  1  0  0  0  0  0  0  0  0  0
   -3.8160    9.6400   -0.3100 C   0  0  0  0  0  0  0  0  0  0  0  0
   -5.0890    9.0370   -0.8960 C   0  0  0  0  0  0  0  0  0  0  0  0
   -4.8510    7.6000   -1.3540 C   0  0  2  0  0  0  0  0  0  0  0  0
   -4.5930    6.7870   -0.2050 O   0  0  0  0  0  0  0  0  0  0  0  0
   -3.6780    7.4650   -2.3640 C   0  0  0  0  0  0  0  0  0  0  0  0
   -4.0840    8.0930   -3.7200 C   0  0  0  0  0  0  0  0  0  0  0  0
   -3.4530    5.9530   -2.6360 C   0  0  0  0  0  0  0  0  0  0  0  0
   -1.3440   10.3620   -0.7490 C   0  0  1  0  0  0  0  0  0  0  0  0
   -1.1480   10.0040    0.7560 C   0  0  0  0  0  0  0  0  0  0  0  0
   -1.5660   11.9190   -0.8100 C   0  0  0  0  0  0  0  0  0  0  0  0
   -1.1720   12.6260   -2.1210 C   0  0  0  0  0  0  0  0  0  0  0  0
    0.2360   12.2170   -2.5640 C   0  0  2  0  0  0  0  0  0  0  0  0
    1.2410   12.6920   -1.4600 C   0  0  0  0  0  0  0  0  0  0  0  0
    1.1749   14.2149   -1.8145 H   0  0  0  0  0  0  0  0  0  0  0  0
    1.4935   15.8198   -2.5557 H   0  0  0  0  0  0  0  0  0  0  0  0
   -0.1713   15.1450   -2.5557 H   0  0  0  0  0  0  0  0  0  0  0  0
    2.2560   14.2710   -4.1571 H   0  0  0  0  0  0  0  0  0  0  0  0
   -0.5842   14.6560   -5.1540 H   0  0  0  0  0  0  0  0  0  0  0  0
    0.6119   16.0279   -4.9788 H   0  0  0  0  0  0  0  0  0  0  0  0
    2.1606   14.4700   -6.4019 H   0  0  0  0  0  0  0  0  0  0  0  0
    0.5863   13.7234   -6.9032 H   0  0  0  0  0  0  0  0  0  0  0  0
    0.5825   16.4311   -6.6829 H   0  0  0  0  0  0  0  0  0  0  0  0
    3.2376   14.5927   -8.1906 H   0  0  0  0  0  0  0  0  0  0  0  0
    2.3772   14.1444   -9.7024 H   0  0  0  0  0  0  0  0  0  0  0  0
    3.5380   15.5152   -9.7024 H   0  0  0  0  0  0  0  0  0  0  0  0
    1.7412   18.0470   -8.6089 H   0  0  0  0  0  0  0  0  0  0  0  0
    2.6164   17.3580  -10.0180 H   0  0  0  0  0  0  0  0  0  0  0  0
    0.8212   17.4189  -10.0180 H   0  0  0  0  0  0  0  0  0  0  0  0
   -0.1179   12.8088   -4.6370 H   0  0  0  0  0  0  0  0  0  0  0  0
    1.7869   11.5211   -5.3804 H   0  0  0  0  0  0  0  0  0  0  0  0
    2.8447   12.2251   -4.1383 H   0  0  0  0  0  0  0  0  0  0  0  0
    1.7134    9.6019   -4.0646 H   0  0  0  0  0  0  0  0  0  0  0  0
    2.4336   10.4061   -2.6728 H   0  0  0  0  0  0  0  0  0  0  0  0
   -1.6366    9.7726   -3.5106 H   0  0  0  0  0  0  0  0  0  0  0  0
   -1.0100   11.0665   -4.5876 H   0  0  0  0  0  0  0  0  0  0  0  0
   -0.2367    9.4451   -4.5876 H   0  0  0  0  0  0  0  0  0  0  0  0
    0.8224   10.2378   -0.8717 H   0  0  0  0  0  0  0  0  0  0  0  0
    0.8202    8.1313   -2.3556 H   0  0  0  0  0  0  0  0  0  0  0  0
    0.3722    8.0405   -0.5725 H   0  0  0  0  0  0  0  0  0  0  0  0
   -1.1120    6.6195   -2.2210 H   0  0  0  0  0  0  0  0  0  0  0  0
   -2.8896   10.2437   -2.1947 H   0  0  0  0  0  0  0  0  0  0  0  0
   -3.5265    9.0586    0.5778 H   0  0  0  0  0  0  0  0  0  0  0  0
   -4.0296   10.6885   -0.0549 H   0  0  0  0  0  0  0  0  0  0  0  0
   -5.8772    9.0445   -0.1288 H   0  0  0  0  0  0  0  0  0  0  0  0
   -5.3937    9.6371   -1.7661 H   0  0  0  0  0  0  0  0  0  0  0  0
   -5.7575    7.2672   -1.8808 H   0  0  0  0  0  0  0  0  0  0  0  0
   -3.9830    6.0800   -0.4760 H   0  0  0  0  0  0  0  0  0  0  0  0
   -4.6732    9.0043   -3.5402 H   0  0  0  0  0  0  0  0  0  0  0  0
   -3.1794    8.3480   -4.2915 H   0  0  0  0  0  0  0  0  0  0  0  0
   -4.6879    7.3728   -4.2915 H   0  0  0  0  0  0  0  0  0  0  0  0
   -3.3731    5.4162   -1.6792 H   0  0  0  0  0  0  0  0  0  0  0  0
   -4.3016    5.5536   -3.2108 H   0  0  0  0  0  0  0  0  0  0  0  0
   -2.5249    5.8180   -3.2108 H   0  0  0  0  0  0  0  0  0  0  0  0
   -1.5826   10.7978    1.3813 H   0  0  0  0  0  0  0  0  0  0  0  0
   -1.6494    9.0495    0.9742 H   0  0  0  0  0  0  0  0  0  0  0  0
   -0.0738    9.9121    0.9742 H   0  0  0  0  0  0  0  0  0  0  0  0
   -2.6355   12.1097   -0.6375 H   0  0  0  0  0  0  0  0  0  0  0  0
   -0.8942   12.3357   -0.0451 H   0  0  0  0  0  0  0  0  0  0  0  0
   -1.8904   12.3516   -2.9075 H   0  0  0  0  0  0  0  0  0  0  0  0
   -1.1836   13.7126   -1.9502 H   0  0  0  0  0  0  0  0  0  0  0  0
    0.8155   12.4909   -0.4658 H   0  0  0  0  0  0  0  0  0  0  0  0
    2.1904   12.1473   -1.5695 H   0  0  0  0  0  0  0  0  0  0  0  0
    1.4228   13.7713   -1.5695 H   0  0  0  0  0  0  0  0  0  0  0  0
  1  2  1  0
  2  3  1  0
  3  4  1  0
  4  5  1  0
  5  6  1  0
  6  7  1  0
  7  8  1  0
  7  9  1  0
  2 10  1  0
 10 11  1  0
 11 12  1  0
 12 13  1  0
 13 14  1  6
 13 15  1  0
 15 16  1  0
 16 17  1  0
 17 18  2  0
 18 19  1  0
 19 20  1  0
 20 21  1  0
 21 22  1  0
 22 23  1  0
 22 24  1  0
 24 25  1  0
 24 26  1  0
 19 27  1  0
 27 28  1  1
 27 29  1  0
 29 30  1  0
 30 31  1  0
 31 32  1  1
  7  5  1  0
 31 10  1  0
 31 13  1  0
 27 15  1  0
 24 18  1  0
  1 33  1  0
  1 34  1  0
  1 35  1  0
  2 36  1  6
  3 37  1  0
  3 38  1  0
  4 39  1  0
  4 40  1  0
  5 41  1  1
  8 42  1  0
  8 43  1  0
  8 44  1  0
  9 45  1  0
  9 46  1  0
  9 47  1  0
 10 48  1  6
 11 49  1  0
 11 50  1  0
 12 51  1  0
 12 52  1  0
 14 53  1  0
 14 54  1  0
 14 55  1  0
 15 56  1  1
 16 57  1  0
 16 58  1  0
 17 59  1  0
 19 60  1  6
 20 61  1  0
 20 62  1  0
 21 63  1  0
 21 64  1  0
 22 65  1  6
 23 66  1  0
 25 67  1  0
 25 68  1  0
 25 69  1  0
 26 70  1  0
 26 71  1  0
 26 72  1  0
 28 73  1  0
 28 74  1  0
 28 75  1  0
 29 76  1  0
 29 77  1  0
 30 78  1  0
 30 79  1  0
 32 80  1  0
 32 81  1  0
 32 82  1  0
M  END
>  <meeko>  (17) 
{"is_sidechain": [false], "intermolecular_energy": 2.731, "internal_energy": -0.839}

$$$$
EPH_relaxed_0001_pdb2pqr_Repair_231_r2_0001_out
     RDKit          3D

 82 86  0  0  0  0  0  0  0  0999 V2000
   -0.1210    9.3070   -4.2150 C   0  0  0  0  0  0  0  0  0  0  0  0
    0.0930    9.5320   -2.7160 C   0  0  2  0  0  0  0  0  0  0  0  0
   -0.6630    8.4970   -1.8590 C   0  0  0  0  0  0  0  0  0  0  0  0
   -2.1850    8.5720   -2.0040 C   0  0  0  0  0  0  0  0  0  0  0  0
   -2.7430    7.3330   -2.6350 C   0  0  2  0  0  0  0  0  0  0  0  0
   -3.7650    7.5670   -3.6130 O   0  0  0  0  0  0  0  0  0  0  0  0
   -4.1700    6.8590   -2.4300 C   0  0  0  0  0  0  0  0  0  0  0  0
   -5.1270    7.6180   -1.5640 C   0  0  0  0  0  0  0  0  0  0  0  0
   -4.4870    5.4160   -2.6700 C   0  0  0  0  0  0  0  0  0  0  0  0
   -0.3430   10.9420   -2.3340 C   0  0  1  0  0  0  0  0  0  0  0  0
   -1.5680   10.9510   -1.3820 C   0  0  0  0  0  0  0  0  0  0  0  0
   -1.3790   12.1540   -0.4210 C   0  0  0  0  0  0  0  0  0  0  0  0
   -0.2390   12.9840   -1.0560 C   0  0  1  0  0  0  0  0  0  0  0  0
   -0.9310   13.8250   -2.1740 C   0  0  0  0  0  0  0  0  0  0  0  0
    0.5840   13.8870   -0.0800 C   0  0  2  0  0  0  0  0  0  0  0  0
   -0.2220   14.9940    0.6210 C   0  0  0  0  0  0  0  0  0  0  0  0
   -0.2720   16.3010   -0.0980 C   0  0  0  0  0  0  0  0  0  0  0  0
    0.5340   16.6670   -1.1120 C   0  0  0  0  0  0  0  0  0  0  0  0
    1.6860   15.7610   -1.5690 C   0  0  1  0  0  0  0  0  0  0  0  0
    2.9740   16.6080   -1.7400 C   0  0  0  0  0  0  0  0  0  0  0  0
    2.7700   17.8040   -2.6650 C   0  0  0  0  0  0  0  0  0  0  0  0
    1.6560   18.7110   -2.1470 C   0  0  2  0  0  0  0  0  0  0  0  0
    2.0830   19.3070   -0.9180 O   0  0  0  0  0  0  0  0  0  0  0  0
    0.3110   17.9650   -1.9270 C   0  0  0  0  0  0  0  0  0  0  0  0
   -0.3010   17.5800   -3.2960 C   0  0  0  0  0  0  0  0  0  0  0  0
   -0.6840   18.9590   -1.2700 C   0  0  0  0  0  0  0  0  0  0  0  0
    1.9260   14.4530   -0.6980 C   0  0  1  0  0  0  0  0  0  0  0  0
    2.8670   14.7790    0.5030 C   0  0  0  0  0  0  0  0  0  0  0  0
    2.6800   13.3840   -1.5750 C   0  0  0  0  0  0  0  0  0  0  0  0
    1.8060   12.4430   -2.4250 C   0  0  0  0  0  0  0  0  0  0  0  0
    0.6840   11.8260   -1.5840 C   0  0  2  0  0  0  0  0  0  0  0  0
    1.3490   10.9560   -0.4630 C   0  0  0  0  0  0  0  0  0  0  0  0
   -0.8721    8.5173   -4.3637 H   0  0  0  0  0  0  0  0  0  0  0  0
   -0.4731   10.2400   -4.6792 H   0  0  0  0  0  0  0  0  0  0  0  0
    0.8285    9.0021   -4.6792 H   0  0  0  0  0  0  0  0  0  0  0  0
    1.1669    9.4070   -2.5134 H   0  0  0  0  0  0  0  0  0  0  0  0
   -0.3347    7.4911   -2.1595 H   0  0  0  0  0  0  0  0  0  0  0  0
   -0.4290    8.7181   -0.8072 H   0  0  0  0  0  0  0  0  0  0  0  0
   -2.6324    8.6968   -1.0069 H   0  0  0  0  0  0  0  0  0  0  0  0
   -2.4260    9.4262   -2.6538 H   0  0  0  0  0  0  0  0  0  0  0  0
   -1.7744    6.8203   -2.5398 H   0  0  0  0  0  0  0  0  0  0  0  0
   -4.8914    7.4311   -0.5059 H   0  0  0  0  0  0  0  0  0  0  0  0
   -5.0382    8.6939   -1.7749 H   0  0  0  0  0  0  0  0  0  0  0  0
   -6.1544    7.2865   -1.7749 H   0  0  0  0  0  0  0  0  0  0  0  0
   -4.6003    4.9001   -1.7051 H   0  0  0  0  0  0  0  0  0  0  0  0
   -5.4240    5.3364   -3.2406 H   0  0  0  0  0  0  0  0  0  0  0  0
   -3.6696    4.9510   -3.2406 H   0  0  0  0  0  0  0  0  0  0  0  0
   -0.5317   11.3540   -3.3363 H   0  0  0  0  0  0  0  0  0  0  0  0
   -2.4962   11.0702   -1.9601 H   0  0  0  0  0  0  0  0  0  0  0  0
   -1.6407   10.0065   -0.8229 H   0  0  0  0  0  0  0  0  0  0  0  0
   -2.3024   12.7482   -0.3561 H   0  0  0  0  0  0  0  0  0  0  0  0
   -1.1421   11.8356    0.6049 H   0  0  0  0  0  0  0  0  0  0  0  0
   -1.5656   14.5962   -1.7130 H   0  0  0  0  0  0  0  0  0  0  0  0
   -0.1640   14.3064   -2.7985 H   0  0  0  0  0  0  0  0  0  0  0  0
   -1.5511   13.1651   -2.7985 H   0  0  0  0  0  0  0  0  0  0  0  0
    0.8701   13.1790    0.7118 H   0  0  0  0  0  0  0  0  0  0  0  0
   -1.2544   14.6353    0.7457 H   0  0  0  0  0  0  0  0  0  0  0  0
    0.2950   15.1902    1.5719 H   0  0  0  0  0  0  0  0  0  0  0  0
   -1.0317   17.0265    0.2283 H   0  0  0  0  0  0  0  0  0  0  0  0
    1.3806   15.3466   -2.5411 H   0  0  0  0  0  0  0  0  0  0  0  0
    3.2876   16.9760   -0.7520 H   0  0  0  0  0  0  0  0  0  0  0  0
    3.7402   15.9622   -2.1938 H   0  0  0  0  0  0  0  0  0  0  0  0
    3.7058   18.3794   -2.7211 H   0  0  0  0  0  0  0  0  0  0  0  0
    2.4861   17.4331   -3.6609 H   0  0  0  0  0  0  0  0  0  0  0  0
    1.4675   19.4752   -2.9154 H   0  0  0  0  0  0  0  0  0  0  0  0
    1.2950   19.6690   -0.4780 H   0  0  0  0  0  0  0  0  0  0  0  0
   -1.2222   17.0005   -3.1359 H   0  0  0  0  0  0  0  0  0  0  0  0
   -0.5361   18.4932   -3.8624 H   0  0  0  0  0  0  0  0  0  0  0  0
    0.4204   16.9727   -3.8624 H   0  0  0  0  0  0  0  0  0  0  0  0
   -0.6085   18.8836   -0.1752 H   0  0  0  0  0  0  0  0  0  0  0  0
   -0.4395   19.9843   -1.5846 H   0  0  0  0  0  0  0  0  0  0  0  0
   -1.7091   18.7135   -1.5846 H   0  0  0  0  0  0  0  0  0  0  0  0
    2.3338   14.5943    1.4472 H   0  0  0  0  0  0  0  0  0  0  0  0
    3.7593   14.1376    0.4543 H   0  0  0  0  0  0  0  0  0  0  0  0
    3.1713   15.8349    0.4543 H   0  0  0  0  0  0  0  0  0  0  0  0
    3.3483   13.9266   -2.2597 H   0  0  0  0  0  0  0  0  0  0  0  0
    3.1919   12.7293   -0.8544 H   0  0  0  0  0  0  0  0  0  0  0  0
    1.3618   13.0149   -3.2530 H   0  0  0  0  0  0  0  0  0  0  0  0
    2.4396   11.6317   -2.8129 H   0  0  0  0  0  0  0  0  0  0  0  0
    1.0541   11.3418    0.5240 H   0  0  0  0  0  0  0  0  0  0  0  0
    1.0163    9.9123   -0.5631 H   0  0  0  0  0  0  0  0  0  0  0  0
    2.4434   11.0032   -0.5631 H   0  0  0  0  0  0  0  0  0  0  0  0
  1  2  1  0
  2  3  1  0
  3  4  1  0
  4  5  1  0
  5  6  1  0
  6  7  1  0
  7  8  1  0
  7  9  1  0
  2 10  1  0
 10 11  1  0
 11 12  1  0
 12 13  1  0
 13 14  1  6
 13 15  1  0
 15 16  1  0
 16 17  1  0
 17 18  2  0
 18 19  1  0
 19 20  1  0
 20 21  1  0
 21 22  1  0
 22 23  1  0
 22 24  1  0
 24 25  1  0
 24 26  1  0
 19 27  1  0
 27 28  1  1
 27 29  1  0
 29 30  1  0
 30 31  1  0
 31 32  1  1
  7  5  1  0
 31 10  1  0
 31 13  1  0
 27 15  1  0
 24 18  1  0
  1 33  1  0
  1 34  1  0
  1 35  1  0
  2 36  1  6
  3 37  1  0
  3 38  1  0
  4 39  1  0
  4 40  1  0
  5 41  1  6
  8 42  1  0
  8 43  1  0
  8 44  1  0
  9 45  1  0
  9 46  1  0
  9 47  1  0
 10 48  1  6
 11 49  1  0
 11 50  1  0
 12 51  1  0
 12 52  1  0
 14 53  1  0
 14 54  1  0
 14 55  1  0
 15 56  1  1
 16 57  1  0
 16 58  1  0
 17 59  1  0
 19 60  1  6
 20 61  1  0
 20 62  1  0
 21 63  1  0
 21 64  1  0
 22 65  1  6
 23 66  1  0
 25 67  1  0
 25 68  1  0
 25 69  1  0
 26 70  1  0
 26 71  1  0
 26 72  1  0
 28 73  1  0
 28 74  1  0
 28 75  1  0
 29 76  1  0
 29 77  1  0
 30 78  1  0
 30 79  1  0
 32 80  1  0
 32 81  1  0
 32 82  1  0
M  END
>  <meeko>  (18) 
{"is_sidechain": [false], "intermolecular_energy": 2.731, "internal_energy": -0.839}

$$$$
EPH_relaxed_0001_pdb2pqr_Repair_231_r2_0001_out
     RDKit          3D

 82 86  0  0  0  0  0  0  0  0999 V2000
    3.1430   14.8470   -7.5350 C   0  0  0  0  0  0  0  0  0  0  0  0
    1.6190   14.8920   -7.3940 C   0  0  2  0  0  0  0  0  0  0  0  0
    1.0110   16.1420   -8.0610 C   0  0  0  0  0  0  0  0  0  0  0  0
    1.9340   16.8030   -9.0880 C   0  0  0  0  0  0  0  0  0  0  0  0
    1.5840   16.4000  -10.4890 C   0  0  2  0  0  0  0  0  0  0  0  0
    0.9810   15.1050  -10.6060 O   0  0  0  0  0  0  0  0  0  0  0  0
    2.2660   15.2650  -11.2280 C   0  0  0  0  0  0  0  0  0  0  0  0
    3.3560   14.4610  -10.5900 C   0  0  0  0  0  0  0  0  0  0  0  0
    2.2170   15.2540  -12.7250 C   0  0  0  0  0  0  0  0  0  0  0  0
    1.2330   14.8480   -5.9200 C   0  0  1  0  0  0  0  0  0  0  0  0
   -0.0210   15.7070   -5.6050 C   0  0  0  0  0  0  0  0  0  0  0  0
   -0.8020   14.9660   -4.4900 C   0  0  0  0  0  0  0  0  0  0  0  0
    0.1830   13.8930   -3.9710 C   0  0  1  0  0  0  0  0  0  0  0  0
    1.1210   14.6540   -2.9820 C   0  0  0  0  0  0  0  0  0  0  0  0
   -0.4570   12.6320   -3.3040 C   0  0  2  0  0  0  0  0  0  0  0  0
   -1.2760   12.9110   -2.0310 C   0  0  0  0  0  0  0  0  0  0  0  0
   -0.5070   12.8510   -0.7530 C   0  0  0  0  0  0  0  0  0  0  0  0
    0.7150   12.3070   -0.6000 C   0  0  0  0  0  0  0  0  0  0  0  0
    1.4090   11.5890   -1.7640 C   0  0  1  0  0  0  0  0  0  0  0  0
    1.9930   10.2410   -1.2660 C   0  0  0  0  0  0  0  0  0  0  0  0
    2.9070   10.4100   -0.0570 C   0  0  0  0  0  0  0  0  0  0  0  0
    2.1640   11.0750    1.0990 C   0  0  2  0  0  0  0  0  0  0  0  0
    1.1490   10.1820    1.5690 O   0  0  0  0  0  0  0  0  0  0  0  0
    1.5240   12.4380    0.7140 C   0  0  0  0  0  0  0  0  0  0  0  0
    2.6370   13.4920    0.4960 C   0  0  0  0  0  0  0  0  0  0  0  0
    0.6890   12.9320    1.9250 C   0  0  0  0  0  0  0  0  0  0  0  0
    0.5500   11.4300   -3.0910 C   0  0  1  0  0  0  0  0  0  0  0  0
   -0.3140   10.1340   -3.0130 C   0  0  0  0  0  0  0  0  0  0  0  0
    1.5230   11.2410   -4.3140 C   0  0  0  0  0  0  0  0  0  0  0  0
    2.0270   12.5220   -5.0060 C   0  0  0  0  0  0  0  0  0  0  0  0
    0.8640   13.4680   -5.3230 C   0  0  2  0  0  0  0  0  0  0  0  0
   -0.0850   12.7370   -6.3330 C   0  0  0  0  0  0  0  0  0  0  0  0
    3.6034   14.8334   -6.5361 H   0  0  0  0  0  0  0  0  0  0  0  0
    3.4337   13.9399   -8.0851 H   0  0  0  0  0  0  0  0  0  0  0  0
    3.4867   15.7354   -8.0851 H   0  0  0  0  0  0  0  0  0  0  0  0
    1.2119   14.0110   -7.9118 H   0  0  0  0  0  0  0  0  0  0  0  0
    0.0812   15.8467   -8.5693 H   0  0  0  0  0  0  0  0  0  0  0  0
    0.8378   16.8794   -7.2634 H   0  0  0  0  0  0  0  0  0  0  0  0
    1.8428   17.8955   -8.9981 H   0  0  0  0  0  0  0  0  0  0  0  0
    2.9640   16.4751   -8.8842 H   0  0  0  0  0  0  0  0  0  0  0  0
    1.3855   17.4460  -10.7654 H   0  0  0  0  0  0  0  0  0  0  0  0
    3.2673   14.5264   -9.4955 H   0  0  0  0  0  0  0  0  0  0  0  0
    3.2676   13.4101  -10.9029 H   0  0  0  0  0  0  0  0  0  0  0  0
    4.3339   14.8557  -10.9029 H   0  0  0  0  0  0  0  0  0  0  0  0
    1.1937   15.0243  -13.0567 H   0  0  0  0  0  0  0  0  0  0  0  0
    2.5139   16.2412  -13.1088 H   0  0  0  0  0  0  0  0  0  0  0  0
    2.9074   14.4885  -13.1088 H   0  0  0  0  0  0  0  0  0  0  0  0
    2.1695   15.2131   -5.4731 H   0  0  0  0  0  0  0  0  0  0  0  0
    0.2816   16.7054   -5.2561 H   0  0  0  0  0  0  0  0  0  0  0  0
   -0.6439   15.8403   -6.5018 H   0  0  0  0  0  0  0  0  0  0  0  0
   -1.0801   15.6604   -3.6835 H   0  0  0  0  0  0  0  0  0  0  0  0
   -1.7405   14.5270   -4.8593 H   0  0  0  0  0  0  0  0  0  0  0  0
    0.8311   14.4188   -1.9473 H   0  0  0  0  0  0  0  0  0  0  0  0
    2.1623   14.3422   -3.1509 H   0  0  0  0  0  0  0  0  0  0  0  0
    1.0306   15.7372   -3.1509 H   0  0  0  0  0  0  0  0  0  0  0  0
   -1.1850   12.3085   -4.0625 H   0  0  0  0  0  0  0  0  0  0  0  0
   -1.7100   13.9179   -2.1198 H   0  0  0  0  0  0  0  0  0  0  0  0
   -2.0286   12.1110   -1.9715 H   0  0  0  0  0  0  0  0  0  0  0  0
   -0.9787   13.2883    0.1393 H   0  0  0  0  0  0  0  0  0  0  0  0
    2.2250   12.2518   -2.0879 H   0  0  0  0  0  0  0  0  0  0  0  0
    1.1608    9.5773   -0.9887 H   0  0  0  0  0  0  0  0  0  0  0  0
    2.5952    9.8163   -2.0827 H   0  0  0  0  0  0  0  0  0  0  0  0
    3.2638    9.4208    0.2658 H   0  0  0  0  0  0  0  0  0  0  0  0
    3.7548   11.0494   -0.3440 H   0  0  0  0  0  0  0  0  0  0  0  0
    2.9022   11.2875    1.8864 H   0  0  0  0  0  0  0  0  0  0  0  0
    0.2890   10.5520    1.3090 H   0  0  0  0  0  0  0  0  0  0  0  0
    3.0066   13.8420    1.4711 H   0  0  0  0  0  0  0  0  0  0  0  0
    3.4651   13.0393   -0.0690 H   0  0  0  0  0  0  0  0  0  0  0  0
    2.2300   14.3435   -0.0690 H   0  0  0  0  0  0  0  0  0  0  0  0
    1.1883   12.6366    2.8596 H   0  0  0  0  0  0  0  0  0  0  0  0
    0.6007   14.0278    1.8869 H   0  0  0  0  0  0  0  0  0  0  0  0
   -0.3139   12.4818    1.8869 H   0  0  0  0  0  0  0  0  0  0  0  0
   -0.4884    9.8725   -1.9589 H   0  0  0  0  0  0  0  0  0  0  0  0
   -1.2788   10.3059   -3.5126 H   0  0  0  0  0  0  0  0  0  0  0  0
    0.2158    9.3095   -3.5126 H   0  0  0  0  0  0  0  0  0  0  0  0
    2.4038   10.6878   -3.9560 H   0  0  0  0  0  0  0  0  0  0  0  0
    0.9279   10.7173   -5.0766 H   0  0  0  0  0  0  0  0  0  0  0  0
    2.7370   13.0350   -4.3405 H   0  0  0  0  0  0  0  0  0  0  0  0
    2.5178   12.2411   -5.9495 H   0  0  0  0  0  0  0  0  0  0  0  0
   -0.8367   12.1580   -5.7765 H   0  0  0  0  0  0  0  0  0  0  0  0
   -0.5904   13.4814   -6.9658 H   0  0  0  0  0  0  0  0  0  0  0  0
    0.5058   12.0584   -6.9658 H   0  0  0  0  0  0  0  0  0  0  0  0
  1  2  1  0
  2  3  1  0
  3  4  1  0
  4  5  1  0
  5  6  1  0
  6  7  1  0
  7  8  1  0
  7  9  1  0
  2 10  1  0
 10 11  1  0
 11 12  1  0
 12 13  1  0
 13 14  1  1
 13 15  1  0
 15 16  1  0
 16 17  1  0
 17 18  2  0
 18 19  1  0
 19 20  1  0
 20 21  1  0
 21 22  1  0
 22 23  1  0
 22 24  1  0
 24 25  1  0
 24 26  1  0
 19 27  1  0
 27 28  1  1
 27 29  1  0
 29 30  1  0
 30 31  1  0
 31 32  1  6
  7  5  1  0
 31 10  1  0
 31 13  1  0
 27 15  1  0
 24 18  1  0
  1 33  1  0
  1 34  1  0
  1 35  1  0
  2 36  1  6
  3 37  1  0
  3 38  1  0
  4 39  1  0
  4 40  1  0
  5 41  1  6
  8 42  1  0
  8 43  1  0
  8 44  1  0
  9 45  1  0
  9 46  1  0
  9 47  1  0
 10 48  1  1
 11 49  1  0
 11 50  1  0
 12 51  1  0
 12 52  1  0
 14 53  1  0
 14 54  1  0
 14 55  1  0
 15 56  1  6
 16 57  1  0
 16 58  1  0
 17 59  1  0
 19 60  1  6
 20 61  1  0
 20 62  1  0
 21 63  1  0
 21 64  1  0
 22 65  1  1
 23 66  1  0
 25 67  1  0
 25 68  1  0
 25 69  1  0
 26 70  1  0
 26 71  1  0
 26 72  1  0
 28 73  1  0
 28 74  1  0
 28 75  1  0
 29 76  1  0
 29 77  1  0
 30 78  1  0
 30 79  1  0
 32 80  1  0
 32 81  1  0
 32 82  1  0
M  END
>  <meeko>  (19) 
{"is_sidechain": [false], "intermolecular_energy": 2.731, "internal_energy": -0.839}

$$$$
EPH_relaxed_0001_pdb2pqr_Repair_231_r2_0001_out
     RDKit          3D

 82 86  0  0  0  0  0  0  0  0999 V2000
   -2.5040    7.7940   -0.1000 C   0  0  0  0  0  0  0  0  0  0  0  0
   -3.0600    9.2190   -0.0310 C   0  0  2  0  0  0  0  0  0  0  0  0
   -4.5660    9.2720   -0.3550 C   0  0  0  0  0  0  0  0  0  0  0  0
   -5.0970    8.0000   -1.0210 C   0  0  0  0  0  0  0  0  0  0  0  0
   -6.5850    8.0460   -1.1980 C   0  0  2  0  0  0  0  0  0  0  0  0
   -7.2640    6.8260   -0.8750 O   0  0  0  0  0  0  0  0  0  0  0  0
   -7.3270    7.2410   -2.2490 C   0  0  0  0  0  0  0  0  0  0  0  0
   -6.6030    6.3330   -3.1930 C   0  0  0  0  0  0  0  0  0  0  0  0
   -8.6850    7.7040   -2.6770 C   0  0  0  0  0  0  0  0  0  0  0  0
   -2.2900   10.1250   -0.9850 C   0  0  1  0  0  0  0  0  0  0  0  0
   -2.9280   11.5330   -1.1180 C   0  0  0  0  0  0  0  0  0  0  0  0
   -1.7600   12.5380   -1.2960 C   0  0  0  0  0  0  0  0  0  0  0  0
   -0.5260   11.6540   -1.5910 C   0  0  1  0  0  0  0  0  0  0  0  0
   -0.6320   11.3130   -3.1110 C   0  0  0  0  0  0  0  0  0  0  0  0
    0.8660   12.2680   -1.2330 C   0  0  2  0  0  0  0  0  0  0  0  0
    1.2350   13.5450   -2.0070 C   0  0  0  0  0  0  0  0  0  0  0  0
    1.9750   13.3250   -3.2850 C   0  0  0  0  0  0  0  0  0  0  0  0
    2.5790   12.1790   -3.6510 C   0  0  0  0  0  0  0  0  0  0  0  0
    2.6360   10.9790   -2.6980 C   0  0  1  0  0  0  0  0  0  0  0  0
    4.0760   10.4020   -2.6770 C   0  0  0  0  0  0  0  0  0  0  0  0
    4.5910   10.0630   -4.0730 C   0  0  0  0  0  0  0  0  0  0  0  0
    4.5730   11.2950   -4.9740 C   0  0  2  0  0  0  0  0  0  0  0  0
    5.5300   12.2390   -4.4840 O   0  0  0  0  0  0  0  0  0  0  0  0
    3.1750   11.9680   -5.0650 C   0  0  0  0  0  0  0  0  0  0  0  0
    2.2110   11.0600   -5.8680 C   0  0  0  0  0  0  0  0  0  0  0  0
    3.3270   13.2750   -5.8880 C   0  0  0  0  0  0  0  0  0  0  0  0
    2.0560   11.2240   -1.2390 C   0  0  1  0  0  0  0  0  0  0  0  0
    3.1670   11.8110   -0.3160 C   0  0  0  0  0  0  0  0  0  0  0  0
    1.6420    9.8410   -0.6100 C   0  0  0  0  0  0  0  0  0  0  0  0
    0.2130    9.3450   -0.9030 C   0  0  0  0  0  0  0  0  0  0  0  0
   -0.8170   10.4460   -0.6280 C   0  0  2  0  0  0  0  0  0  0  0  0
   -0.7490   10.7930    0.8980 C   0  0  0  0  0  0  0  0  0  0  0  0
   -2.3539    7.4092    0.9195 H   0  0  0  0  0  0  0  0  0  0  0  0
   -3.2161    7.1481   -0.6345 H   0  0  0  0  0  0  0  0  0  0  0  0
   -1.5426    7.8010   -0.6345 H   0  0  0  0  0  0  0  0  0  0  0  0
   -2.9323    9.5732    1.0026 H   0  0  0  0  0  0  0  0  0  0  0  0
   -5.1179    9.4290    0.5835 H   0  0  0  0  0  0  0  0  0  0  0  0
   -4.7123   10.0947   -1.0704 H   0  0  0  0  0  0  0  0  0  0  0  0
   -4.6239    7.8904   -2.0080 H   0  0  0  0  0  0  0  0  0  0  0  0
   -4.8554    7.1463   -0.3708 H   0  0  0  0  0  0  0  0  0  0  0  0
   -6.6075    9.1136   -0.9341 H   0  0  0  0  0  0  0  0  0  0  0  0
   -6.0178    5.5991   -2.6195 H   0  0  0  0  0  0  0  0  0  0  0  0
   -7.3318    5.8063   -3.8267 H   0  0  0  0  0  0  0  0  0  0  0  0
   -5.9273    6.9262   -3.8267 H   0  0  0  0  0  0  0  0  0  0  0  0
   -9.2982    7.9131   -1.7880 H   0  0  0  0  0  0  0  0  0  0  0  0
   -8.5874    8.6196   -3.2787 H   0  0  0  0  0  0  0  0  0  0  0  0
   -9.1671    6.9195   -3.2787 H   0  0  0  0  0  0  0  0  0  0  0  0
   -2.3307    9.5098   -1.8960 H   0  0  0  0  0  0  0  0  0  0  0  0
   -3.5933   11.5664   -1.9934 H   0  0  0  0  0  0  0  0  0  0  0  0
   -3.5297   11.7796   -0.2308 H   0  0  0  0  0  0  0  0  0  0  0  0
   -1.9590   13.2198   -2.1360 H   0  0  0  0  0  0  0  0  0  0  0  0
   -1.6164   13.1719   -0.4086 H   0  0  0  0  0  0  0  0  0  0  0  0
   -0.9566   10.2688   -3.2308 H   0  0  0  0  0  0  0  0  0  0  0  0
   -1.3647   11.9816   -3.5865 H   0  0  0  0  0  0  0  0  0  0  0  0
    0.3506   11.4484   -3.5865 H   0  0  0  0  0  0  0  0  0  0  0  0
    0.7227   12.5831   -0.1889 H   0  0  0  0  0  0  0  0  0  0  0  0
    0.3037   14.0813   -2.2415 H   0  0  0  0  0  0  0  0  0  0  0  0
    1.9166   14.1101   -1.3542 H   0  0  0  0  0  0  0  0  0  0  0  0
    2.0314   14.1705   -3.9864 H   0  0  0  0  0  0  0  0  0  0  0  0
    1.9404   10.2321   -3.1082 H   0  0  0  0  0  0  0  0  0  0  0  0
    4.7476   11.1465   -2.2245 H   0  0  0  0  0  0  0  0  0  0  0  0
    4.0536    9.4696   -2.0938 H   0  0  0  0  0  0  0  0  0  0  0  0
    5.6224    9.6886   -3.9953 H   0  0  0  0  0  0  0  0  0  0  0  0
    3.9362    9.2963   -4.5127 H   0  0  0  0  0  0  0  0  0  0  0  0
    4.8276   10.9626   -5.9912 H   0  0  0  0  0  0  0  0  0  0  0  0
    5.1640   12.6370   -3.6760 H   0  0  0  0  0  0  0  0  0  0  0  0
    1.5913   10.4763   -5.1713 H   0  0  0  0  0  0  0  0  0  0  0  0
    1.5627   11.6832   -6.5015 H   0  0  0  0  0  0  0  0  0  0  0  0
    2.7943   10.3756   -6.5015 H   0  0  0  0  0  0  0  0  0  0  0  0
    3.4264   14.1301   -5.2032 H   0  0  0  0  0  0  0  0  0  0  0  0
    4.2233   13.2069   -6.5221 H   0  0  0  0  0  0  0  0  0  0  0  0
    2.4390   13.4144   -6.5221 H   0  0  0  0  0  0  0  0  0  0  0  0
    2.8854   11.6622    0.7369 H   0  0  0  0  0  0  0  0  0  0  0  0
    4.1193   11.2983   -0.5168 H   0  0  0  0  0  0  0  0  0  0  0  0
    3.2801   12.8866   -0.5168 H   0  0  0  0  0  0  0  0  0  0  0  0
    2.3420    9.0809   -0.9871 H   0  0  0  0  0  0  0  0  0  0  0  0
    1.6749    9.9981    0.4782 H   0  0  0  0  0  0  0  0  0  0  0  0
    0.1457    9.0450   -1.9592 H   0  0  0  0  0  0  0  0  0  0  0  0
   -0.0033    8.4902   -0.2453 H   0  0  0  0  0  0  0  0  0  0  0  0
   -0.9274    9.8828    1.4893 H   0  0  0  0  0  0  0  0  0  0  0  0
    0.2454   11.1972    1.1381 H   0  0  0  0  0  0  0  0  0  0  0  0
   -1.5173   11.5427    1.1381 H   0  0  0  0  0  0  0  0  0  0  0  0
  1  2  1  0
  2  3  1  0
  3  4  1  0
  4  5  1  0
  5  6  1  0
  6  7  1  0
  7  8  1  0
  7  9  1  0
  2 10  1  0
 10 11  1  0
 11 12  1  0
 12 13  1  0
 13 14  1  6
 13 15  1  0
 15 16  1  0
 16 17  1  0
 17 18  2  0
 18 19  1  0
 19 20  1  0
 20 21  1  0
 21 22  1  0
 22 23  1  0
 22 24  1  0
 24 25  1  0
 24 26  1  0
 19 27  1  0
 27 28  1  1
 27 29  1  0
 29 30  1  0
 30 31  1  0
 31 32  1  1
  7  5  1  0
 31 10  1  0
 31 13  1  0
 27 15  1  0
 24 18  1  0
  1 33  1  0
  1 34  1  0
  1 35  1  0
  2 36  1  1
  3 37  1  0
  3 38  1  0
  4 39  1  0
  4 40  1  0
  5 41  1  1
  8 42  1  0
  8 43  1  0
  8 44  1  0
  9 45  1  0
  9 46  1  0
  9 47  1  0
 10 48  1  6
 11 49  1  0
 11 50  1  0
 12 51  1  0
 12 52  1  0
 14 53  1  0
 14 54  1  0
 14 55  1  0
 15 56  1  1
 16 57  1  0
 16 58  1  0
 17 59  1  0
 19 60  1  6
 20 61  1  0
 20 62  1  0
 21 63  1  0
 21 64  1  0
 22 65  1  6
 23 66  1  0
 25 67  1  0
 25 68  1  0
 25 69  1  0
 26 70  1  0
 26 71  1  0
 26 72  1  0
 28 73  1  0
 28 74  1  0
 28 75  1  0
 29 76  1  0
 29 77  1  0
 30 78  1  0
 30 79  1  0
 32 80  1  0
 32 81  1  0
 32 82  1  0
M  END
>  <meeko>  (20) 
{"is_sidechain": [false], "intermolecular_energy": 2.731, "internal_energy": -0.839}

$$$$
