EPH_relaxed_0001_pdb2pqr_Repair_123_r2_0001_out
     RDKit          3D

 82 86  0  0  0  0  0  0  0  0999 V2000
   -1.3550    8.3990   -1.4690 C   0  0  0  0  0  0  0  0  0  0  0  0
   -1.9910    9.2420   -0.3600 C   0  0  2  0  0  0  0  0  0  0  0  0
   -3.4100    9.7150   -0.7310 C   0  0  0  0  0  0  0  0  0  0  0  0
   -4.4930    8.6580   -0.4950 C   0  0  0  0  0  0  0  0  0  0  0  0
   -4.9950    8.0820   -1.7840 C   0  0  2  0  0  0  0  0  0  0  0  0
   -6.0950    8.7920   -2.3690 O   0  0  0  0  0  0  0  0  0  0  0  0
   -6.3650    7.4470   -1.9390 C   0  0  0  0  0  0  0  0  0  0  0  0
   -7.3170    7.3560   -0.7890 C   0  0  0  0  0  0  0  0  0  0  0  0
   -6.5850    6.4870   -3.0670 C   0  0  0  0  0  0  0  0  0  0  0  0
   -1.1060   10.4430   -0.0480 C   0  0  1  0  0  0  0  0  0  0  0  0
   -0.0050   10.1190    0.9970 C   0  0  0  0  0  0  0  0  0  0  0  0
    1.2440   10.9480    0.6030 C   0  0  0  0  0  0  0  0  0  0  0  0
    0.7250   11.9610   -0.4440 C   0  0  1  0  0  0  0  0  0  0  0  0
    0.0750   13.1060    0.3940 C   0  0  0  0  0  0  0  0  0  0  0  0
    1.7830   12.5140   -1.4540 C   0  0  2  0  0  0  0  0  0  0  0  0
    2.9320   13.3180   -0.8200 C   0  0  0  0  0  0  0  0  0  0  0  0
    2.6930   14.7860   -0.7000 C   0  0  0  0  0  0  0  0  0  0  0  0
    1.7290   15.4760   -1.3370 C   0  0  0  0  0  0  0  0  0  0  0  0
    0.8130   14.7900   -2.3590 C   0  0  1  0  0  0  0  0  0  0  0  0
    0.7060   15.6720   -3.6310 C   0  0  0  0  0  0  0  0  0  0  0  0
    0.2650   17.0990   -3.3190 C   0  0  0  0  0  0  0  0  0  0  0  0
    1.2320   17.7670   -2.3440 C   0  0  2  0  0  0  0  0  0  0  0  0
    2.4950   17.9410   -2.9950 O   0  0  0  0  0  0  0  0  0  0  0  0
    1.4280   16.9640   -1.0280 C   0  0  0  0  0  0  0  0  0  0  0  0
    0.1350   17.0330   -0.1790 C   0  0  0  0  0  0  0  0  0  0  0  0
    2.5310   17.6720   -0.1970 C   0  0  0  0  0  0  0  0  0  0  0  0
    1.1600   13.2760   -2.6930 C   0  0  1  0  0  0  0  0  0  0  0  0
    2.2210   13.2120   -3.8340 C   0  0  0  0  0  0  0  0  0  0  0  0
   -0.1310   12.5630   -3.2460 C   0  0  0  0  0  0  0  0  0  0  0  0
   -1.0760   11.9320   -2.2060 C   0  0  0  0  0  0  0  0  0  0  0  0
   -0.2990   11.0550   -1.2200 C   0  0  2  0  0  0  0  0  0  0  0  0
    0.3490    9.8810   -2.0320 C   0  0  0  0  0  0  0  0  0  0  0  0
   -0.7504    7.5976   -1.0194 H   0  0  0  0  0  0  0  0  0  0  0  0
   -2.1459    7.9560   -2.0921 H   0  0  0  0  0  0  0  0  0  0  0  0
   -0.7119    9.0379   -2.0921 H   0  0  0  0  0  0  0  0  0  0  0  0
   -2.0792    8.6036    0.5314 H   0  0  0  0  0  0  0  0  0  0  0  0
   -3.6507   10.6003   -0.1241 H   0  0  0  0  0  0  0  0  0  0  0  0
   -3.4042    9.9340   -1.8090 H   0  0  0  0  0  0  0  0  0  0  0  0
   -4.0724    7.8472    0.1180 H   0  0  0  0  0  0  0  0  0  0  0  0
   -5.3382    9.1412    0.0170 H   0  0  0  0  0  0  0  0  0  0  0  0
   -3.9859    7.7333   -2.0488 H   0  0  0  0  0  0  0  0  0  0  0  0
   -6.7566    7.4096    0.1560 H   0  0  0  0  0  0  0  0  0  0  0  0
   -8.0327    8.1898   -0.8386 H   0  0  0  0  0  0  0  0  0  0  0  0
   -7.8618    6.4017   -0.8386 H   0  0  0  0  0  0  0  0  0  0  0  0
   -6.8134    5.4905   -2.6611 H   0  0  0  0  0  0  0  0  0  0  0  0
   -7.4271    6.8333   -3.6843 H   0  0  0  0  0  0  0  0  0  0  0  0
   -5.6762    6.4320   -3.6843 H   0  0  0  0  0  0  0  0  0  0  0  0
   -1.8735   11.1537    0.2923 H   0  0  0  0  0  0  0  0  0  0  0  0
   -0.3444   10.4011    2.0046 H   0  0  0  0  0  0  0  0  0  0  0  0
    0.2232    9.0430    1.0093 H   0  0  0  0  0  0  0  0  0  0  0  0
    1.6551   11.4711    1.4790 H   0  0  0  0  0  0  0  0  0  0  0  0
    2.0552   10.3185    0.2083 H   0  0  0  0  0  0  0  0  0  0  0  0
    0.1972   12.8907    1.4658 H   0  0  0  0  0  0  0  0  0  0  0  0
    0.5659   14.0605    0.1534 H   0  0  0  0  0  0  0  0  0  0  0  0
   -0.9962   13.1737    0.1534 H   0  0  0  0  0  0  0  0  0  0  0  0
    2.2415   11.5930   -1.8432 H   0  0  0  0  0  0  0  0  0  0  0  0
    3.1093   12.9190    0.1896 H   0  0  0  0  0  0  0  0  0  0  0  0
    3.7920   13.2042   -1.4963 H   0  0  0  0  0  0  0  0  0  0  0  0
    3.3613   15.3521   -0.0345 H   0  0  0  0  0  0  0  0  0  0  0  0
   -0.1729   14.7073   -1.8783 H   0  0  0  0  0  0  0  0  0  0  0  0
    1.6907   15.7063   -4.1200 H   0  0  0  0  0  0  0  0  0  0  0  0
   -0.0558   15.2229   -4.2852 H   0  0  0  0  0  0  0  0  0  0  0  0
    0.2367   17.6796   -4.2529 H   0  0  0  0  0  0  0  0  0  0  0  0
   -0.7328   17.0656   -2.8572 H   0  0  0  0  0  0  0  0  0  0  0  0
    0.7957   18.7353   -2.0574 H   0  0  0  0  0  0  0  0  0  0  0  0
    2.3430   17.8820   -3.9530 H   0  0  0  0  0  0  0  0  0  0  0  0
    0.3967   17.0190    0.8893 H   0  0  0  0  0  0  0  0  0  0  0  0
   -0.4073   17.9614   -0.4116 H   0  0  0  0  0  0  0  0  0  0  0  0
   -0.5030   16.1676   -0.4116 H   0  0  0  0  0  0  0  0  0  0  0  0
    2.3243   17.5393    0.8752 H   0  0  0  0  0  0  0  0  0  0  0  0
    3.5104   17.2334   -0.4386 H   0  0  0  0  0  0  0  0  0  0  0  0
    2.5401   18.7451   -0.4386 H   0  0  0  0  0  0  0  0  0  0  0  0
    3.2279   13.1513   -3.3954 H   0  0  0  0  0  0  0  0  0  0  0  0
    2.0377   12.3233   -4.4557 H   0  0  0  0  0  0  0  0  0  0  0  0
    2.1458   14.1163   -4.4557 H   0  0  0  0  0  0  0  0  0  0  0  0
   -0.7083   13.3106   -3.8097 H   0  0  0  0  0  0  0  0  0  0  0  0
    0.2410   11.7193   -3.8458 H   0  0  0  0  0  0  0  0  0  0  0  0
   -1.5860   12.7329   -1.6506 H   0  0  0  0  0  0  0  0  0  0  0  0
   -1.8080   11.3027   -2.7335 H   0  0  0  0  0  0  0  0  0  0  0  0
    0.7601    9.1361   -1.3348 H   0  0  0  0  0  0  0  0  0  0  0  0
   -0.4155    9.4075   -2.6655 H   0  0  0  0  0  0  0  0  0  0  0  0
    1.1571   10.2756   -2.6655 H   0  0  0  0  0  0  0  0  0  0  0  0
  1  2  1  0
  2  3  1  0
  3  4  1  0
  4  5  1  0
  5  6  1  0
  6  7  1  0
  7  8  1  0
  7  9  1  0
  2 10  1  0
 10 11  1  0
 11 12  1  0
 12 13  1  0
 13 14  1  1
 13 15  1  0
 15 16  1  0
 16 17  1  0
 17 18  2  0
 18 19  1  0
 19 20  1  0
 20 21  1  0
 21 22  1  0
 22 23  1  0
 22 24  1  0
 24 25  1  0
 24 26  1  0
 19 27  1  0
 27 28  1  6
 27 29  1  0
 29 30  1  0
 30 31  1  0
 31 32  1  6
  7  5  1  0
 31 10  1  0
 31 13  1  0
 27 15  1  0
 24 18  1  0
  1 33  1  0
  1 34  1  0
  1 35  1  0
  2 36  1  1
  3 37  1  0
  3 38  1  0
  4 39  1  0
  4 40  1  0
  5 41  1  6
  8 42  1  0
  8 43  1  0
  8 44  1  0
  9 45  1  0
  9 46  1  0
  9 47  1  0
 10 48  1  1
 11 49  1  0
 11 50  1  0
 12 51  1  0
 12 52  1  0
 14 53  1  0
 14 54  1  0
 14 55  1  0
 15 56  1  6
 16 57  1  0
 16 58  1  0
 17 59  1  0
 19 60  1  1
 20 61  1  0
 20 62  1  0
 21 63  1  0
 21 64  1  0
 22 65  1  1
 23 66  1  0
 25 67  1  0
 25 68  1  0
 25 69  1  0
 26 70  1  0
 26 71  1  0
 26 72  1  0
 28 73  1  0
 28 74  1  0
 28 75  1  0
 29 76  1  0
 29 77  1  0
 30 78  1  0
 30 79  1  0
 32 80  1  0
 32 81  1  0
 32 82  1  0
M  END
>  <meeko>  (1) 
{"is_sidechain": [false], "intermolecular_energy": 2.731, "internal_energy": -0.839}

$$$$
EPH_relaxed_0001_pdb2pqr_Repair_123_r2_0001_out
     RDKit          3D

 82 86  0  0  0  0  0  0  0  0999 V2000
    2.0660   18.2120   -2.8650 C   0  0  0  0  0  0  0  0  0  0  0  0
    0.8480   17.7270   -2.0730 C   0  0  2  0  0  0  0  0  0  0  0  0
    1.0790   17.8000   -0.5500 C   0  0  0  0  0  0  0  0  0  0  0  0
    1.1420   19.2290   -0.0040 C   0  0  0  0  0  0  0  0  0  0  0  0
   -0.1810   19.9240   -0.1200 C   0  0  2  0  0  0  0  0  0  0  0  0
   -0.8290   20.1910    1.1310 O   0  0  0  0  0  0  0  0  0  0  0  0
   -1.5020   19.2770    0.2500 C   0  0  0  0  0  0  0  0  0  0  0  0
   -1.5660   17.8730    0.7640 C   0  0  0  0  0  0  0  0  0  0  0  0
   -2.7610   19.8290   -0.3440 C   0  0  0  0  0  0  0  0  0  0  0  0
    0.4970   16.3010   -2.4790 C   0  0  1  0  0  0  0  0  0  0  0  0
    0.6870   16.0490   -3.9990 C   0  0  0  0  0  0  0  0  0  0  0  0
    1.1760   14.5860   -4.1520 C   0  0  0  0  0  0  0  0  0  0  0  0
    0.9350   13.9470   -2.7640 C   0  0  1  0  0  0  0  0  0  0  0  0
   -0.5800   13.5720   -2.7530 C   0  0  0  0  0  0  0  0  0  0  0  0
    1.8360   12.7210   -2.4020 C   0  0  2  0  0  0  0  0  0  0  0  0
    1.6680   11.4950   -3.3160 C   0  0  0  0  0  0  0  0  0  0  0  0
    0.6350   10.5090   -2.8790 C   0  0  0  0  0  0  0  0  0  0  0  0
    0.0750   10.4550   -1.6560 C   0  0  0  0  0  0  0  0  0  0  0  0
    0.5430   11.3880   -0.5320 C   0  0  1  0  0  0  0  0  0  0  0  0
    0.7470   10.5700    0.7700 C   0  0  0  0  0  0  0  0  0  0  0  0
   -0.4920    9.7670    1.1560 C   0  0  0  0  0  0  0  0  0  0  0  0
   -0.8920    8.8090    0.0370 C   0  0  2  0  0  0  0  0  0  0  0  0
    0.1240    7.8110   -0.1010 O   0  0  0  0  0  0  0  0  0  0  0  0
   -1.1150    9.5200   -1.3270 C   0  0  0  0  0  0  0  0  0  0  0  0
   -2.4030   10.3770   -1.2630 C   0  0  0  0  0  0  0  0  0  0  0  0
   -1.3740    8.4260   -2.3980 C   0  0  0  0  0  0  0  0  0  0  0  0
    1.7900   12.3120   -0.8740 C   0  0  1  0  0  0  0  0  0  0  0  0
    3.1170   11.5470   -0.5780 C   0  0  0  0  0  0  0  0  0  0  0  0
    1.7780   13.5650    0.0800 C   0  0  0  0  0  0  0  0  0  0  0  0
    0.9680   14.7880   -0.3890 C   0  0  0  0  0  0  0  0  0  0  0  0
    1.3180   15.1560   -1.8350 C   0  0  2  0  0  0  0  0  0  0  0  0
    2.8310   15.5590   -1.8730 C   0  0  0  0  0  0  0  0  0  0  0  0
    2.8558   18.5265   -2.1669 H   0  0  0  0  0  0  0  0  0  0  0  0
    2.4407   17.3945   -3.4984 H   0  0  0  0  0  0  0  0  0  0  0  0
    1.7762   19.0633   -3.4984 H   0  0  0  0  0  0  0  0  0  0  0  0
    0.0097   18.3979   -2.3123 H   0  0  0  0  0  0  0  0  0  0  0  0
    0.2543   17.2727   -0.0482 H   0  0  0  0  0  0  0  0  0  0  0  0
    2.0567   17.3368   -0.3510 H   0  0  0  0  0  0  0  0  0  0  0  0
    1.4346   19.1934    1.0558 H   0  0  0  0  0  0  0  0  0  0  0  0
    1.8786   19.7912   -0.5968 H   0  0  0  0  0  0  0  0  0  0  0  0
    0.1520   20.4566   -1.0230 H   0  0  0  0  0  0  0  0  0  0  0  0
   -1.5655   17.8848    1.8639 H   0  0  0  0  0  0  0  0  0  0  0  0
   -2.4870   17.3920    0.4029 H   0  0  0  0  0  0  0  0  0  0  0  0
   -0.6926   17.3102    0.4029 H   0  0  0  0  0  0  0  0  0  0  0  0
   -3.4460   20.1293    0.4626 H   0  0  0  0  0  0  0  0  0  0  0  0
   -2.5202   20.7041   -0.9654 H   0  0  0  0  0  0  0  0  0  0  0  0
   -3.2415   19.0590   -0.9654 H   0  0  0  0  0  0  0  0  0  0  0  0
   -0.5449   16.2603   -2.1285 H   0  0  0  0  0  0  0  0  0  0  0  0
   -0.2676   16.1866   -4.5280 H   0  0  0  0  0  0  0  0  0  0  0  0
    1.4128   16.7551   -4.4287 H   0  0  0  0  0  0  0  0  0  0  0  0
    0.5969   14.0620   -4.9266 H   0  0  0  0  0  0  0  0  0  0  0  0
    2.2303   14.5286   -4.4603 H   0  0  0  0  0  0  0  0  0  0  0  0
   -0.9288   13.4857   -1.7134 H   0  0  0  0  0  0  0  0  0  0  0  0
   -1.1553   14.3549   -3.2689 H   0  0  0  0  0  0  0  0  0  0  0  0
   -0.7237   12.6112   -3.2689 H   0  0  0  0  0  0  0  0  0  0  0  0
    2.8474   13.1054   -2.6002 H   0  0  0  0  0  0  0  0  0  0  0  0
    1.3923   11.8540   -4.3186 H   0  0  0  0  0  0  0  0  0  0  0  0
    2.6292   10.9608   -3.2875 H   0  0  0  0  0  0  0  0  0  0  0  0
    0.3041    9.7647   -3.6182 H   0  0  0  0  0  0  0  0  0  0  0  0
   -0.2648   12.1207   -0.3885 H   0  0  0  0  0  0  0  0  0  0  0  0
    1.5861    9.8744    0.6217 H   0  0  0  0  0  0  0  0  0  0  0  0
    0.9507   11.2819    1.5835 H   0  0  0  0  0  0  0  0  0  0  0  0
   -0.2764    9.1877    2.0659 H   0  0  0  0  0  0  0  0  0  0  0  0
   -1.3224   10.4663    1.3329 H   0  0  0  0  0  0  0  0  0  0  0  0
   -1.8555    8.3583    0.3172 H   0  0  0  0  0  0  0  0  0  0  0  0
    0.1060    7.2600    0.7000 H   0  0  0  0  0  0  0  0  0  0  0  0
   -2.6723   10.5562   -0.2116 H   0  0  0  0  0  0  0  0  0  0  0  0
   -2.2283   11.3396   -1.7659 H   0  0  0  0  0  0  0  0  0  0  0  0
   -3.2234    9.8441   -1.7659 H   0  0  0  0  0  0  0  0  0  0  0  0
   -1.6000    7.4716   -1.9000 H   0  0  0  0  0  0  0  0  0  0  0  0
   -2.2267    8.7226   -3.0264 H   0  0  0  0  0  0  0  0  0  0  0  0
   -0.4788    8.3088   -3.0264 H   0  0  0  0  0  0  0  0  0  0  0  0
    3.2584   11.4655    0.5098 H   0  0  0  0  0  0  0  0  0  0  0  0
    3.0656   10.5400   -1.0176 H   0  0  0  0  0  0  0  0  0  0  0  0
    3.9627   12.0962   -1.0176 H   0  0  0  0  0  0  0  0  0  0  0  0
    1.3642   13.2429    1.0470 H   0  0  0  0  0  0  0  0  0  0  0  0
    2.8223   13.9086    0.1165 H   0  0  0  0  0  0  0  0  0  0  0  0
   -0.1051   14.5543   -0.3268 H   0  0  0  0  0  0  0  0  0  0  0  0
    1.2143   15.6416    0.2596 H   0  0  0  0  0  0  0  0  0  0  0  0
    3.2095   15.6598   -0.8451 H   0  0  0  0  0  0  0  0  0  0  0  0
    3.4042   14.7822   -2.4003 H   0  0  0  0  0  0  0  0  0  0  0  0
    2.9419   16.5180   -2.4003 H   0  0  0  0  0  0  0  0  0  0  0  0
  1  2  1  0
  2  3  1  0
  3  4  1  0
  4  5  1  0
  5  6  1  0
  6  7  1  0
  7  8  1  0
  7  9  1  0
  2 10  1  0
 10 11  1  0
 11 12  1  0
 12 13  1  0
 13 14  1  6
 13 15  1  0
 15 16  1  0
 16 17  1  0
 17 18  2  0
 18 19  1  0
 19 20  1  0
 20 21  1  0
 21 22  1  0
 22 23  1  0
 22 24  1  0
 24 25  1  0
 24 26  1  0
 19 27  1  0
 27 28  1  1
 27 29  1  0
 29 30  1  0
 30 31  1  0
 31 32  1  1
  7  5  1  0
 31 10  1  0
 31 13  1  0
 27 15  1  0
 24 18  1  0
  1 33  1  0
  1 34  1  0
  1 35  1  0
  2 36  1  1
  3 37  1  0
  3 38  1  0
  4 39  1  0
  4 40  1  0
  5 41  1  6
  8 42  1  0
  8 43  1  0
  8 44  1  0
  9 45  1  0
  9 46  1  0
  9 47  1  0
 10 48  1  6
 11 49  1  0
 11 50  1  0
 12 51  1  0
 12 52  1  0
 14 53  1  0
 14 54  1  0
 14 55  1  0
 15 56  1  6
 16 57  1  0
 16 58  1  0
 17 59  1  0
 19 60  1  1
 20 61  1  0
 20 62  1  0
 21 63  1  0
 21 64  1  0
 22 65  1  1
 23 66  1  0
 25 67  1  0
 25 68  1  0
 25 69  1  0
 26 70  1  0
 26 71  1  0
 26 72  1  0
 28 73  1  0
 28 74  1  0
 28 75  1  0
 29 76  1  0
 29 77  1  0
 30 78  1  0
 30 79  1  0
 32 80  1  0
 32 81  1  0
 32 82  1  0
M  END
>  <meeko>  (2) 
{"is_sidechain": [false], "intermolecular_energy": 2.731, "internal_energy": -0.839}

$$$$
EPH_relaxed_0001_pdb2pqr_Repair_123_r2_0001_out
     RDKit          3D

 82 86  0  0  0  0  0  0  0  0999 V2000
    3.6740   17.8970    0.7560 C   0  0  0  0  0  0  0  0  0  0  0  0
    2.7100   18.2900   -0.3670 C   0  0  2  0  0  0  0  0  0  0  0  0
    1.9820   19.6160   -0.0700 C   0  0  0  0  0  0  0  0  0  0  0  0
    0.8410   19.4790    0.9410 C   0  0  0  0  0  0  0  0  0  0  0  0
   -0.4210   20.1180    0.4440 C   0  0  2  0  0  0  0  0  0  0  0  0
   -1.4760   20.1920    1.4120 O   0  0  0  0  0  0  0  0  0  0  0  0
   -1.7250   19.3650    0.2640 C   0  0  0  0  0  0  0  0  0  0  0  0
   -1.8340   17.9050    0.5770 C   0  0  0  0  0  0  0  0  0  0  0  0
   -2.7510   19.9250   -0.6710 C   0  0  0  0  0  0  0  0  0  0  0  0
    1.6930   17.1770   -0.5930 C   0  0  1  0  0  0  0  0  0  0  0  0
    0.4800   17.6400   -1.4430 C   0  0  0  0  0  0  0  0  0  0  0  0
    0.0540   16.4290   -2.3110 C   0  0  0  0  0  0  0  0  0  0  0  0
    0.8100   15.2260   -1.7000 C   0  0  1  0  0  0  0  0  0  0  0  0
   -0.0440   14.8010   -0.4650 C   0  0  0  0  0  0  0  0  0  0  0  0
    1.0790   14.0200   -2.6580 C   0  0  2  0  0  0  0  0  0  0  0  0
   -0.1820   13.3230   -3.2000 C   0  0  0  0  0  0  0  0  0  0  0  0
   -0.6890   12.1890   -2.3710 C   0  0  0  0  0  0  0  0  0  0  0  0
   -0.0020   11.5640   -1.3970 C   0  0  0  0  0  0  0  0  0  0  0  0
    1.4610   11.9230   -1.1090 C   0  0  1  0  0  0  0  0  0  0  0  0
    2.2960   10.6230   -0.9690 C   0  0  0  0  0  0  0  0  0  0  0  0
    1.7160    9.6640    0.0670 C   0  0  0  0  0  0  0  0  0  0  0  0
    0.2800    9.2850   -0.2850 C   0  0  2  0  0  0  0  0  0  0  0  0
    0.2890    8.5120   -1.4890 O   0  0  0  0  0  0  0  0  0  0  0  0
   -0.6540   10.5150   -0.4610 C   0  0  0  0  0  0  0  0  0  0  0  0
   -0.9030   11.1800    0.9150 C   0  0  0  0  0  0  0  0  0  0  0  0
   -2.0340   10.0010   -0.9520 C   0  0  0  0  0  0  0  0  0  0  0  0
    2.1260   12.9710   -2.1020 C   0  0  1  0  0  0  0  0  0  0  0  0
    2.7150   12.2300   -3.3410 C   0  0  0  0  0  0  0  0  0  0  0  0
    3.3410   13.6640   -1.3800 C   0  0  0  0  0  0  0  0  0  0  0  0
    3.0290   14.9210   -0.5460 C   0  0  0  0  0  0  0  0  0  0  0  0
    2.1790   15.9130   -1.3460 C   0  0  2  0  0  0  0  0  0  0  0  0
    3.0210   16.3750   -2.5830 C   0  0  0  0  0  0  0  0  0  0  0  0
    3.2005   18.0900    1.7299 H   0  0  0  0  0  0  0  0  0  0  0  0
    3.9179   16.8276    0.6724 H   0  0  0  0  0  0  0  0  0  0  0  0
    4.5960   18.4910    0.6724 H   0  0  0  0  0  0  0  0  0  0  0  0
    3.3075   18.4383   -1.2786 H   0  0  0  0  0  0  0  0  0  0  0  0
    2.7150   20.3327    0.3287 H   0  0  0  0  0  0  0  0  0  0  0  0
    1.5343   19.9555   -1.0157 H   0  0  0  0  0  0  0  0  0  0  0  0
    0.6520   18.4107    1.1224 H   0  0  0  0  0  0  0  0  0  0  0  0
    1.1414   19.9895    1.8679 H   0  0  0  0  0  0  0  0  0  0  0  0
    0.1492   20.7768   -0.2275 H   0  0  0  0  0  0  0  0  0  0  0  0
   -1.8446   17.7637    1.6678 H   0  0  0  0  0  0  0  0  0  0  0  0
   -2.7644   17.5062    0.1466 H   0  0  0  0  0  0  0  0  0  0  0  0
   -0.9731   17.3725    0.1466 H   0  0  0  0  0  0  0  0  0  0  0  0
   -3.5710   20.3725   -0.0902 H   0  0  0  0  0  0  0  0  0  0  0  0
   -2.2877   20.6954   -1.3050 H   0  0  0  0  0  0  0  0  0  0  0  0
   -3.1483   19.1186   -1.3050 H   0  0  0  0  0  0  0  0  0  0  0  0
    1.4580   16.9260    0.4519 H   0  0  0  0  0  0  0  0  0  0  0  0
   -0.3481   17.9454   -0.7865 H   0  0  0  0  0  0  0  0  0  0  0  0
    0.7447   18.5029   -2.0717 H   0  0  0  0  0  0  0  0  0  0  0  0
   -1.0335   16.2738   -2.2540 H   0  0  0  0  0  0  0  0  0  0  0  0
    0.2917   16.5743   -3.3751 H   0  0  0  0  0  0  0  0  0  0  0  0
    0.4901   15.0668    0.4591 H   0  0  0  0  0  0  0  0  0  0  0  0
   -1.0122   15.3224   -0.4918 H   0  0  0  0  0  0  0  0  0  0  0  0
   -0.2119   13.7142   -0.4918 H   0  0  0  0  0  0  0  0  0  0  0  0
    1.5467   14.5080   -3.5258 H   0  0  0  0  0  0  0  0  0  0  0  0
   -0.9815   14.0750   -3.2729 H   0  0  0  0  0  0  0  0  0  0  0  0
    0.1029   12.8883   -4.1695 H   0  0  0  0  0  0  0  0  0  0  0  0
   -1.7104   11.8346   -2.5736 H   0  0  0  0  0  0  0  0  0  0  0  0
    1.4575   12.4687   -0.1539 H   0  0  0  0  0  0  0  0  0  0  0  0
    2.3231   10.1145   -1.9441 H   0  0  0  0  0  0  0  0  0  0  0  0
    3.3039   10.9080   -0.6330 H   0  0  0  0  0  0  0  0  0  0  0  0
    2.3315    8.7528    0.0986 H   0  0  0  0  0  0  0  0  0  0  0  0
    1.7174   10.1630    1.0473 H   0  0  0  0  0  0  0  0  0  0  0  0
   -0.1229    8.7039    0.5576 H   0  0  0  0  0  0  0  0  0  0  0  0
   -0.3640    7.7990   -1.3860 H   0  0  0  0  0  0  0  0  0  0  0  0
   -0.6388   10.4744    1.7164 H   0  0  0  0  0  0  0  0  0  0  0  0
   -0.2824   12.0840    1.0030 H   0  0  0  0  0  0  0  0  0  0  0  0
   -1.9647   11.4541    1.0030 H   0  0  0  0  0  0  0  0  0  0  0  0
   -2.6674    9.7651   -0.0841 H   0  0  0  0  0  0  0  0  0  0  0  0
   -2.5198   10.7785   -1.5599 H   0  0  0  0  0  0  0  0  0  0  0  0
   -1.8928    9.0952   -1.5599 H   0  0  0  0  0  0  0  0  0  0  0  0
    3.3663   11.4106   -3.0028 H   0  0  0  0  0  0  0  0  0  0  0  0
    1.8940   11.8194   -3.9472 H   0  0  0  0  0  0  0  0  0  0  0  0
    3.3002   12.9372   -3.9472 H   0  0  0  0  0  0  0  0  0  0  0  0
    3.7949   12.9221   -0.7065 H   0  0  0  0  0  0  0  0  0  0  0  0
    3.9968   14.0127   -2.1914 H   0  0  0  0  0  0  0  0  0  0  0  0
    2.4793   14.6247    0.3596 H   0  0  0  0  0  0  0  0  0  0  0  0
    3.9780   15.4086   -0.2782 H   0  0  0  0  0  0  0  0  0  0  0  0
    3.9363   16.8772   -2.2366 H   0  0  0  0  0  0  0  0  0  0  0  0
    3.2911   15.4987   -3.1906 H   0  0  0  0  0  0  0  0  0  0  0  0
    2.4270   17.0735   -3.1906 H   0  0  0  0  0  0  0  0  0  0  0  0
  1  2  1  0
  2  3  1  0
  3  4  1  0
  4  5  1  0
  5  6  1  0
  6  7  1  0
  7  8  1  0
  7  9  1  0
  2 10  1  0
 10 11  1  0
 11 12  1  0
 12 13  1  0
 13 14  1  1
 13 15  1  0
 15 16  1  0
 16 17  1  0
 17 18  2  0
 18 19  1  0
 19 20  1  0
 20 21  1  0
 21 22  1  0
 22 23  1  0
 22 24  1  0
 24 25  1  0
 24 26  1  0
 19 27  1  0
 27 28  1  6
 27 29  1  0
 29 30  1  0
 30 31  1  0
 31 32  1  6
  7  5  1  0
 31 10  1  0
 31 13  1  0
 27 15  1  0
 24 18  1  0
  1 33  1  0
  1 34  1  0
  1 35  1  0
  2 36  1  6
  3 37  1  0
  3 38  1  0
  4 39  1  0
  4 40  1  0
  5 41  1  6
  8 42  1  0
  8 43  1  0
  8 44  1  0
  9 45  1  0
  9 46  1  0
  9 47  1  0
 10 48  1  1
 11 49  1  0
 11 50  1  0
 12 51  1  0
 12 52  1  0
 14 53  1  0
 14 54  1  0
 14 55  1  0
 15 56  1  6
 16 57  1  0
 16 58  1  0
 17 59  1  0
 19 60  1  1
 20 61  1  0
 20 62  1  0
 21 63  1  0
 21 64  1  0
 22 65  1  1
 23 66  1  0
 25 67  1  0
 25 68  1  0
 25 69  1  0
 26 70  1  0
 26 71  1  0
 26 72  1  0
 28 73  1  0
 28 74  1  0
 28 75  1  0
 29 76  1  0
 29 77  1  0
 30 78  1  0
 30 79  1  0
 32 80  1  0
 32 81  1  0
 32 82  1  0
M  END
>  <meeko>  (3) 
{"is_sidechain": [false], "intermolecular_energy": 2.731, "internal_energy": -0.839}

$$$$
EPH_relaxed_0001_pdb2pqr_Repair_123_r2_0001_out
     RDKit          3D

 82 86  0  0  0  0  0  0  0  0999 V2000
   -5.1190    6.0860   -1.7450 C   0  0  0  0  0  0  0  0  0  0  0  0
   -5.4560    7.5710   -1.9030 C   0  0  2  0  0  0  0  0  0  0  0  0
   -5.1940    8.3670   -0.6090 C   0  0  0  0  0  0  0  0  0  0  0  0
   -4.1570    9.4820   -0.7720 C   0  0  0  0  0  0  0  0  0  0  0  0
   -2.7750    9.0070   -0.4380 C   0  0  2  0  0  0  0  0  0  0  0  0
   -2.1390    9.7190    0.6320 O   0  0  0  0  0  0  0  0  0  0  0  0
   -1.5270    9.8400   -0.6630 C   0  0  0  0  0  0  0  0  0  0  0  0
   -1.6020   11.2160   -1.2450 C   0  0  0  0  0  0  0  0  0  0  0  0
   -0.2100    9.1380   -0.7740 C   0  0  0  0  0  0  0  0  0  0  0  0
   -6.9100    7.7320   -2.3290 C   0  0  1  0  0  0  0  0  0  0  0  0
   -7.2270    7.0040   -3.6630 C   0  0  0  0  0  0  0  0  0  0  0  0
   -8.6790    6.4720   -3.5480 C   0  0  0  0  0  0  0  0  0  0  0  0
   -9.2600    7.1890   -2.3070 C   0  0  1  0  0  0  0  0  0  0  0  0
   -9.6830    8.6010   -2.8200 C   0  0  0  0  0  0  0  0  0  0  0  0
  -10.4370    6.4630   -1.5780 C   0  0  2  0  0  0  0  0  0  0  0  0
  -11.7090    6.2730   -2.4220 C   0  0  0  0  0  0  0  0  0  0  0  0
  -12.7060    7.3800   -2.3310 C   0  0  0  0  0  0  0  0  0  0  0  0
  -12.7220    8.3430   -1.3900 C   0  0  0  0  0  0  0  0  0  0  0  0
  -11.7220    8.3230   -0.2270 C   0  0  1  0  0  0  0  0  0  0  0  0
  -12.4720    8.5910    1.1050 C   0  0  0  0  0  0  0  0  0  0  0  0
  -13.2960    9.8750    1.0640 C   0  0  0  0  0  0  0  0  0  0  0  0
  -14.3170    9.8320   -0.0690 C   0  0  2  0  0  0  0  0  0  0  0  0
  -15.2870    8.8210    0.2230 O   0  0  0  0  0  0  0  0  0  0  0  0
  -13.6790    9.5580   -1.4590 C   0  0  0  0  0  0  0  0  0  0  0  0
  -12.8620   10.7950   -1.9100 C   0  0  0  0  0  0  0  0  0  0  0  0
  -14.8290    9.3990   -2.4900 C   0  0  0  0  0  0  0  0  0  0  0  0
  -10.7750    7.0500   -0.1480 C   0  0  1  0  0  0  0  0  0  0  0  0
  -11.4810    5.9090    0.6460 C   0  0  0  0  0  0  0  0  0  0  0  0
   -9.4800    7.4220    0.6670 C   0  0  0  0  0  0  0  0  0  0  0  0
   -8.3070    8.0250   -0.1290 C   0  0  0  0  0  0  0  0  0  0  0  0
   -7.9970    7.1830   -1.3700 C   0  0  2  0  0  0  0  0  0  0  0  0
   -7.5460    5.7630   -0.8850 C   0  0  0  0  0  0  0  0  0  0  0  0
   -5.0620    5.8347   -0.6756 H   0  0  0  0  0  0  0  0  0  0  0  0
   -5.9023    5.4794   -2.2229 H   0  0  0  0  0  0  0  0  0  0  0  0
   -4.1506    5.8769   -2.2229 H   0  0  0  0  0  0  0  0  0  0  0  0
   -4.7940    7.9793   -2.6809 H   0  0  0  0  0  0  0  0  0  0  0  0
   -6.1417    8.8192   -0.2815 H   0  0  0  0  0  0  0  0  0  0  0  0
   -4.7906    7.6578    0.1288 H   0  0  0  0  0  0  0  0  0  0  0  0
   -4.1712    9.8324   -1.8146 H   0  0  0  0  0  0  0  0  0  0  0  0
   -4.4167   10.2958   -0.0790 H   0  0  0  0  0  0  0  0  0  0  0  0
   -3.0353    7.9766   -0.7217 H   0  0  0  0  0  0  0  0  0  0  0  0
   -1.6423   11.9562   -0.4323 H   0  0  0  0  0  0  0  0  0  0  0  0
   -0.7126   11.4007   -1.8653 H   0  0  0  0  0  0  0  0  0  0  0  0
   -2.5062   11.3029   -1.8653 H   0  0  0  0  0  0  0  0  0  0  0  0
    0.1806    8.9298    0.2330 H   0  0  0  0  0  0  0  0  0  0  0  0
   -0.3437    8.1915   -1.3183 H   0  0  0  0  0  0  0  0  0  0  0  0
    0.5012    9.7767   -1.3183 H   0  0  0  0  0  0  0  0  0  0  0  0
   -6.9677    8.8295   -2.3751 H   0  0  0  0  0  0  0  0  0  0  0  0
   -7.1464    7.7059   -4.5061 H   0  0  0  0  0  0  0  0  0  0  0  0
   -6.5182    6.1822   -3.8427 H   0  0  0  0  0  0  0  0  0  0  0  0
   -9.2576    6.7246   -4.4488 H   0  0  0  0  0  0  0  0  0  0  0  0
   -8.7156    5.3768   -3.4523 H   0  0  0  0  0  0  0  0  0  0  0  0
   -9.8802    9.2593   -1.9611 H   0  0  0  0  0  0  0  0  0  0  0  0
   -8.8731    9.0272   -3.4303 H   0  0  0  0  0  0  0  0  0  0  0  0
  -10.5938    8.5117   -3.4303 H   0  0  0  0  0  0  0  0  0  0  0  0
  -10.0292    5.4536   -1.4203 H   0  0  0  0  0  0  0  0  0  0  0  0
  -11.4065    6.1737   -3.4749 H   0  0  0  0  0  0  0  0  0  0  0  0
  -12.2094    5.3792   -2.0211 H   0  0  0  0  0  0  0  0  0  0  0  0
  -13.4944    7.4118   -3.0975 H   0  0  0  0  0  0  0  0  0  0  0  0
  -11.0092    9.1370   -0.4251 H   0  0  0  0  0  0  0  0  0  0  0  0
  -13.1462    7.7455    1.3064 H   0  0  0  0  0  0  0  0  0  0  0  0
  -11.7168    8.7038    1.8968 H   0  0  0  0  0  0  0  0  0  0  0  0
  -13.8251    9.9939    2.0210 H   0  0  0  0  0  0  0  0  0  0  0  0
  -12.6165   10.7228    0.8922 H   0  0  0  0  0  0  0  0  0  0  0  0
  -14.7845   10.8259   -0.1295 H   0  0  0  0  0  0  0  0  0  0  0  0
  -15.6410    8.5000   -0.6240 H   0  0  0  0  0  0  0  0  0  0  0  0
  -12.5023   11.3396   -1.0245 H   0  0  0  0  0  0  0  0  0  0  0  0
  -12.0024   10.4668   -2.5128 H   0  0  0  0  0  0  0  0  0  0  0  0
  -13.5013   11.4568   -2.5128 H   0  0  0  0  0  0  0  0  0  0  0  0
  -15.7827    9.2671   -1.9580 H   0  0  0  0  0  0  0  0  0  0  0  0
  -14.8825   10.2983   -3.1212 H   0  0  0  0  0  0  0  0  0  0  0  0
  -14.6365    8.5189   -3.1212 H   0  0  0  0  0  0  0  0  0  0  0  0
  -11.3691    6.0898    1.7253 H   0  0  0  0  0  0  0  0  0  0  0  0
  -12.5498    5.8887    0.3865 H   0  0  0  0  0  0  0  0  0  0  0  0
  -11.0222    4.9435    0.3865 H   0  0  0  0  0  0  0  0  0  0  0  0
   -9.7698    8.1522    1.4369 H   0  0  0  0  0  0  0  0  0  0  0  0
   -9.1013    6.4658    1.0573 H   0  0  0  0  0  0  0  0  0  0  0  0
   -8.5721    9.0453   -0.4433 H   0  0  0  0  0  0  0  0  0  0  0  0
   -7.4162    8.0403    0.5162 H   0  0  0  0  0  0  0  0  0  0  0  0
   -7.5376    5.7367    0.2147 H   0  0  0  0  0  0  0  0  0  0  0  0
   -8.2479    5.0058   -1.2646 H   0  0  0  0  0  0  0  0  0  0  0  0
   -6.5359    5.5496   -1.2646 H   0  0  0  0  0  0  0  0  0  0  0  0
  1  2  1  0
  2  3  1  0
  3  4  1  0
  4  5  1  0
  5  6  1  0
  6  7  1  0
  7  8  1  0
  7  9  1  0
  2 10  1  0
 10 11  1  0
 11 12  1  0
 12 13  1  0
 13 14  1  6
 13 15  1  0
 15 16  1  0
 16 17  1  0
 17 18  2  0
 18 19  1  0
 19 20  1  0
 20 21  1  0
 21 22  1  0
 22 23  1  0
 22 24  1  0
 24 25  1  0
 24 26  1  0
 19 27  1  0
 27 28  1  1
 27 29  1  0
 29 30  1  0
 30 31  1  0
 31 32  1  1
  7  5  1  0
 31 10  1  0
 31 13  1  0
 27 15  1  0
 24 18  1  0
  1 33  1  0
  1 34  1  0
  1 35  1  0
  2 36  1  6
  3 37  1  0
  3 38  1  0
  4 39  1  0
  4 40  1  0
  5 41  1  1
  8 42  1  0
  8 43  1  0
  8 44  1  0
  9 45  1  0
  9 46  1  0
  9 47  1  0
 10 48  1  6
 11 49  1  0
 11 50  1  0
 12 51  1  0
 12 52  1  0
 14 53  1  0
 14 54  1  0
 14 55  1  0
 15 56  1  1
 16 57  1  0
 16 58  1  0
 17 59  1  0
 19 60  1  6
 20 61  1  0
 20 62  1  0
 21 63  1  0
 21 64  1  0
 22 65  1  6
 23 66  1  0
 25 67  1  0
 25 68  1  0
 25 69  1  0
 26 70  1  0
 26 71  1  0
 26 72  1  0
 28 73  1  0
 28 74  1  0
 28 75  1  0
 29 76  1  0
 29 77  1  0
 30 78  1  0
 30 79  1  0
 32 80  1  0
 32 81  1  0
 32 82  1  0
M  END
>  <meeko>  (4) 
{"is_sidechain": [false], "intermolecular_energy": 2.731, "internal_energy": -0.839}

$$$$
EPH_relaxed_0001_pdb2pqr_Repair_123_r2_0001_out
     RDKit          3D

 82 86  0  0  0  0  0  0  0  0999 V2000
    3.8160   11.1810   -4.5680 C   0  0  0  0  0  0  0  0  0  0  0  0
    2.3440   11.1970   -4.9900 C   0  0  2  0  0  0  0  0  0  0  0  0
    2.1800   11.2430   -6.5230 C   0  0  0  0  0  0  0  0  0  0  0  0
    1.2240   12.3370   -7.0070 C   0  0  0  0  0  0  0  0  0  0  0  0
    1.9460   13.6210   -7.2840 C   0  0  2  0  0  0  0  0  0  0  0  0
    1.2600   14.8010   -6.8450 O   0  0  0  0  0  0  0  0  0  0  0  0
    1.4470   14.6670   -8.2630 C   0  0  0  0  0  0  0  0  0  0  0  0
    0.1760   14.4750   -9.0290 C   0  0  0  0  0  0  0  0  0  0  0  0
    2.4310   15.6390   -8.8350 C   0  0  0  0  0  0  0  0  0  0  0  0
    1.6340   12.3870   -4.3540 C   0  0  1  0  0  0  0  0  0  0  0  0
    0.0950   12.1990   -4.2890 C   0  0  0  0  0  0  0  0  0  0  0  0
   -0.3840   12.8760   -2.9790 C   0  0  0  0  0  0  0  0  0  0  0  0
    0.8300   13.7100   -2.5060 C   0  0  1  0  0  0  0  0  0  0  0  0
    0.7710   15.0200   -3.3530 C   0  0  0  0  0  0  0  0  0  0  0  0
    0.9020   14.0160   -0.9740 C   0  0  2  0  0  0  0  0  0  0  0  0
   -0.2600   14.8590   -0.4210 C   0  0  0  0  0  0  0  0  0  0  0  0
   -0.0430   16.3350   -0.4410 C   0  0  0  0  0  0  0  0  0  0  0  0
    1.1420   16.9490   -0.6170 C   0  0  0  0  0  0  0  0  0  0  0  0
    2.4410   16.1400   -0.7230 C   0  0  1  0  0  0  0  0  0  0  0  0
    3.5270   16.7820    0.1800 C   0  0  0  0  0  0  0  0  0  0  0  0
    3.7360   18.2630   -0.1200 C   0  0  0  0  0  0  0  0  0  0  0  0
    2.4360   19.0440    0.0530 C   0  0  2  0  0  0  0  0  0  0  0  0
    2.0710   19.0310    1.4360 O   0  0  0  0  0  0  0  0  0  0  0  0
    1.2660   18.4820   -0.8020 C   0  0  0  0  0  0  0  0  0  0  0  0
    1.5300   18.7710   -2.3000 C   0  0  0  0  0  0  0  0  0  0  0  0
   -0.0190   19.2690   -0.4290 C   0  0  0  0  0  0  0  0  0  0  0  0
    2.3020   14.5740   -0.4910 C   0  0  1  0  0  0  0  0  0  0  0  0
    2.4090   14.2500    1.0310 C   0  0  0  0  0  0  0  0  0  0  0  0
    3.5110   13.8420   -1.1860 C   0  0  0  0  0  0  0  0  0  0  0  0
    3.3310   13.4590   -2.6680 C   0  0  0  0  0  0  0  0  0  0  0  0
    2.0010   12.7340   -2.8900 C   0  0  2  0  0  0  0  0  0  0  0  0
    2.0390   11.4010   -2.0670 C   0  0  0  0  0  0  0  0  0  0  0  0
    3.8827   11.1803   -3.4700 H   0  0  0  0  0  0  0  0  0  0  0  0
    4.3016   10.2775   -4.9654 H   0  0  0  0  0  0  0  0  0  0  0  0
    4.3211   12.0737   -4.9654 H   0  0  0  0  0  0  0  0  0  0  0  0
    1.8881   10.2601   -4.6372 H   0  0  0  0  0  0  0  0  0  0  0  0
    3.1679   11.4211   -6.9728 H   0  0  0  0  0  0  0  0  0  0  0  0
    1.7472   10.2792   -6.8292 H   0  0  0  0  0  0  0  0  0  0  0  0
    0.7325   11.9979   -7.9308 H   0  0  0  0  0  0  0  0  0  0  0  0
    0.4856   12.5230   -6.2132 H   0  0  0  0  0  0  0  0  0  0  0  0
    2.9209   13.1250   -7.1673 H   0  0  0  0  0  0  0  0  0  0  0  0
   -0.6604   14.3487   -8.3258 H   0  0  0  0  0  0  0  0  0  0  0  0
   -0.0071   15.3557   -9.6622 H   0  0  0  0  0  0  0  0  0  0  0  0
    0.2612   13.5795   -9.6622 H   0  0  0  0  0  0  0  0  0  0  0  0
    2.9540   16.1556   -8.0168 H   0  0  0  0  0  0  0  0  0  0  0  0
    3.1623   15.0989   -9.4543 H   0  0  0  0  0  0  0  0  0  0  0  0
    1.8999   16.3768   -9.4543 H   0  0  0  0  0  0  0  0  0  0  0  0
    1.9754   13.1871   -5.0272 H   0  0  0  0  0  0  0  0  0  0  0  0
   -0.3818   12.6759   -5.1580 H   0  0  0  0  0  0  0  0  0  0  0  0
   -0.1733   11.1323   -4.3030 H   0  0  0  0  0  0  0  0  0  0  0  0
   -1.2504   13.5257   -3.1717 H   0  0  0  0  0  0  0  0  0  0  0  0
   -0.7073   12.1438   -2.2244 H   0  0  0  0  0  0  0  0  0  0  0  0
    0.7318   15.8898   -2.6808 H   0  0  0  0  0  0  0  0  0  0  0  0
    1.6670   15.0870   -3.9875 H   0  0  0  0  0  0  0  0  0  0  0  0
   -0.1274   15.0062   -3.9875 H   0  0  0  0  0  0  0  0  0  0  0  0
    0.7841   13.0175   -0.5279 H   0  0  0  0  0  0  0  0  0  0  0  0
   -1.1552   14.6390   -1.0212 H   0  0  0  0  0  0  0  0  0  0  0  0
   -0.3603   14.5807    0.6385 H   0  0  0  0  0  0  0  0  0  0  0  0
   -0.9260   16.9757   -0.3000 H   0  0  0  0  0  0  0  0  0  0  0  0
    2.7507   16.1985   -1.7769 H   0  0  0  0  0  0  0  0  0  0  0  0
    3.2203   16.6749    1.2309 H   0  0  0  0  0  0  0  0  0  0  0  0
    4.4765   16.2635   -0.0193 H   0  0  0  0  0  0  0  0  0  0  0  0
    4.4926   18.6665    0.5690 H   0  0  0  0  0  0  0  0  0  0  0  0
    4.0710   18.3659   -1.1627 H   0  0  0  0  0  0  0  0  0  0  0  0
    2.6177   20.0699   -0.2998 H   0  0  0  0  0  0  0  0  0  0  0  0
    1.1360   18.7690    1.4910 H   0  0  0  0  0  0  0  0  0  0  0  0
    2.2693   19.5803   -2.3926 H   0  0  0  0  0  0  0  0  0  0  0  0
    1.9173   17.8633   -2.7859 H   0  0  0  0  0  0  0  0  0  0  0  0
    0.5910   19.0748   -2.7859 H   0  0  0  0  0  0  0  0  0  0  0  0
   -0.1100   19.3247    0.6658 H   0  0  0  0  0  0  0  0  0  0  0  0
    0.0403   20.2859   -0.8442 H   0  0  0  0  0  0  0  0  0  0  0  0
   -0.8979   18.7541   -0.8442 H   0  0  0  0  0  0  0  0  0  0  0  0
    2.1168   15.1348    1.6157 H   0  0  0  0  0  0  0  0  0  0  0  0
    1.7400   13.4117    1.2754 H   0  0  0  0  0  0  0  0  0  0  0  0
    3.4457   13.9750    1.2754 H   0  0  0  0  0  0  0  0  0  0  0  0
    4.3858   14.5053   -1.1174 H   0  0  0  0  0  0  0  0  0  0  0  0
    3.6150   12.8861   -0.6517 H   0  0  0  0  0  0  0  0  0  0  0  0
    3.3492   14.3726   -3.2804 H   0  0  0  0  0  0  0  0  0  0  0  0
    4.1503   12.7845   -2.9575 H   0  0  0  0  0  0  0  0  0  0  0  0
    2.0324   11.6335   -0.9919 H   0  0  0  0  0  0  0  0  0  0  0  0
    1.1579   10.7913   -2.3157 H   0  0  0  0  0  0  0  0  0  0  0  0
    2.9534   10.8425   -2.3157 H   0  0  0  0  0  0  0  0  0  0  0  0
  1  2  1  0
  2  3  1  0
  3  4  1  0
  4  5  1  0
  5  6  1  0
  6  7  1  0
  7  8  1  0
  7  9  1  0
  2 10  1  0
 10 11  1  0
 11 12  1  0
 12 13  1  0
 13 14  1  6
 13 15  1  0
 15 16  1  0
 16 17  1  0
 17 18  2  0
 18 19  1  0
 19 20  1  0
 20 21  1  0
 21 22  1  0
 22 23  1  0
 22 24  1  0
 24 25  1  0
 24 26  1  0
 19 27  1  0
 27 28  1  1
 27 29  1  0
 29 30  1  0
 30 31  1  0
 31 32  1  1
  7  5  1  0
 31 10  1  0
 31 13  1  0
 27 15  1  0
 24 18  1  0
  1 33  1  0
  1 34  1  0
  1 35  1  0
  2 36  1  1
  3 37  1  0
  3 38  1  0
  4 39  1  0
  4 40  1  0
  5 41  1  1
  8 42  1  0
  8 43  1  0
  8 44  1  0
  9 45  1  0
  9 46  1  0
  9 47  1  0
 10 48  1  6
 11 49  1  0
 11 50  1  0
 12 51  1  0
 12 52  1  0
 14 53  1  0
 14 54  1  0
 14 55  1  0
 15 56  1  1
 16 57  1  0
 16 58  1  0
 17 59  1  0
 19 60  1  6
 20 61  1  0
 20 62  1  0
 21 63  1  0
 21 64  1  0
 22 65  1  6
 23 66  1  0
 25 67  1  0
 25 68  1  0
 25 69  1  0
 26 70  1  0
 26 71  1  0
 26 72  1  0
 28 73  1  0
 28 74  1  0
 28 75  1  0
 29 76  1  0
 29 77  1  0
 30 78  1  0
 30 79  1  0
 32 80  1  0
 32 81  1  0
 32 82  1  0
M  END
>  <meeko>  (5) 
{"is_sidechain": [false], "intermolecular_energy": 2.731, "internal_energy": -0.839}

$$$$
EPH_relaxed_0001_pdb2pqr_Repair_123_r2_0001_out
     RDKit          3D

 82 86  0  0  0  0  0  0  0  0999 V2000
    0.4470    8.8110   -2.3760 C   0  0  0  0  0  0  0  0  0  0  0  0
    1.1860    9.9570   -3.0720 C   0  0  2  0  0  0  0  0  0  0  0  0
    2.6840    9.9880   -2.7080 C   0  0  0  0  0  0  0  0  0  0  0  0
    3.5730   10.5710   -3.8100 C   0  0  0  0  0  0  0  0  0  0  0  0
    4.9710   10.8100   -3.3260 C   0  0  2  0  0  0  0  0  0  0  0  0
    5.5610   12.0340   -3.7820 O   0  0  0  0  0  0  0  0  0  0  0  0
    6.1820   10.8220   -4.2390 C   0  0  0  0  0  0  0  0  0  0  0  0
    6.0510   10.5890   -5.7120 C   0  0  0  0  0  0  0  0  0  0  0  0
    7.5320   10.5740   -3.6410 C   0  0  0  0  0  0  0  0  0  0  0  0
    0.5360   11.2880   -2.7130 C   0  0  1  0  0  0  0  0  0  0  0  0
   -0.8350   11.1120   -2.0060 C   0  0  0  0  0  0  0  0  0  0  0  0
   -0.9550   12.2610   -0.9720 C   0  0  0  0  0  0  0  0  0  0  0  0
    0.1820   13.2410   -1.3430 C   0  0  1  0  0  0  0  0  0  0  0  0
   -0.3840   14.0820   -2.5300 C   0  0  0  0  0  0  0  0  0  0  0  0
    0.7110   14.1540   -0.1890 C   0  0  2  0  0  0  0  0  0  0  0  0
   -0.3250   15.1260    0.4010 C   0  0  0  0  0  0  0  0  0  0  0  0
   -0.3870   16.4670   -0.2530 C   0  0  0  0  0  0  0  0  0  0  0  0
    0.5440   16.9770   -1.0800 C   0  0  0  0  0  0  0  0  0  0  0  0
    1.8510   16.2230   -1.3560 C   0  0  1  0  0  0  0  0  0  0  0  0
    3.0480   17.2030   -1.2430 C   0  0  0  0  0  0  0  0  0  0  0  0
    2.8840   18.4320   -2.1330 C   0  0  0  0  0  0  0  0  0  0  0  0
    1.6030   19.1870   -1.7900 C   0  0  2  0  0  0  0  0  0  0  0  0
    1.7320   19.7400   -0.4760 O   0  0  0  0  0  0  0  0  0  0  0  0
    0.3300   18.2980   -1.8600 C   0  0  0  0  0  0  0  0  0  0  0  0
    0.0210   17.9460   -3.3360 C   0  0  0  0  0  0  0  0  0  0  0  0
   -0.8710   19.1430   -1.3550 C   0  0  0  0  0  0  0  0  0  0  0  0
    2.0730   14.8910   -0.5180 C   0  0  1  0  0  0  0  0  0  0  0  0
    2.7390   15.2270    0.8510 C   0  0  0  0  0  0  0  0  0  0  0  0
    3.0850   13.9620   -1.2880 C   0  0  0  0  0  0  0  0  0  0  0  0
    2.4880   12.9970   -2.3300 C   0  0  0  0  0  0  0  0  0  0  0  0
    1.3070   12.2180   -1.7430 C   0  0  2  0  0  0  0  0  0  0  0  0
    1.8500   11.3450   -0.5600 C   0  0  0  0  0  0  0  0  0  0  0  0
    0.5255    8.9328   -1.2856 H   0  0  0  0  0  0  0  0  0  0  0  0
   -0.6126    8.8252   -2.6712 H   0  0  0  0  0  0  0  0  0  0  0  0
    0.8971    7.8517   -2.6712 H   0  0  0  0  0  0  0  0  0  0  0  0
    1.1130    9.7874   -4.1564 H   0  0  0  0  0  0  0  0  0  0  0  0
    2.8086   10.5988   -1.8017 H   0  0  0  0  0  0  0  0  0  0  0  0
    3.0001    8.9451   -2.5579 H   0  0  0  0  0  0  0  0  0  0  0  0
    3.6035    9.8659   -4.6537 H   0  0  0  0  0  0  0  0  0  0  0  0
    3.1472   11.5371   -4.1188 H   0  0  0  0  0  0  0  0  0  0  0  0
    4.7613   10.2788   -2.3859 H   0  0  0  0  0  0  0  0  0  0  0  0
    5.5188    9.6425   -5.8876 H   0  0  0  0  0  0  0  0  0  0  0  0
    5.4861   11.4168   -6.1654 H   0  0  0  0  0  0  0  0  0  0  0  0
    7.0519   10.5365   -6.1654 H   0  0  0  0  0  0  0  0  0  0  0  0
    7.4552   10.5881   -2.5438 H   0  0  0  0  0  0  0  0  0  0  0  0
    7.9040    9.5925   -3.9699 H   0  0  0  0  0  0  0  0  0  0  0  0
    8.2286   11.3592   -3.9699 H   0  0  0  0  0  0  0  0  0  0  0  0
    0.4875   11.7446   -3.7126 H   0  0  0  0  0  0  0  0  0  0  0  0
   -1.6512   11.1765   -2.7406 H   0  0  0  0  0  0  0  0  0  0  0  0
   -0.9035   10.1299   -1.5153 H   0  0  0  0  0  0  0  0  0  0  0  0
   -1.9347   12.7547   -1.0523 H   0  0  0  0  0  0  0  0  0  0  0  0
   -0.8727   11.8999    0.0638 H   0  0  0  0  0  0  0  0  0  0  0  0
   -0.9573   14.9338   -2.1353 H   0  0  0  0  0  0  0  0  0  0  0  0
    0.4483   14.4539   -3.1456 H   0  0  0  0  0  0  0  0  0  0  0  0
   -1.0419   13.4510   -3.1456 H   0  0  0  0  0  0  0  0  0  0  0  0
    0.9257   13.4264    0.6076 H   0  0  0  0  0  0  0  0  0  0  0  0
   -1.3172   14.6592    0.3137 H   0  0  0  0  0  0  0  0  0  0  0  0
   -0.0135   15.3085    1.4401 H   0  0  0  0  0  0  0  0  0  0  0  0
   -1.2680   17.0905   -0.0408 H   0  0  0  0  0  0  0  0  0  0  0  0
    1.7726   15.8462   -2.3865 H   0  0  0  0  0  0  0  0  0  0  0  0
    3.1355   17.5338   -0.1976 H   0  0  0  0  0  0  0  0  0  0  0  0
    3.9500   16.6681   -1.5751 H   0  0  0  0  0  0  0  0  0  0  0  0
    3.7456   19.0999   -1.9867 H   0  0  0  0  0  0  0  0  0  0  0  0
    2.8269   18.1016   -3.1806 H   0  0  0  0  0  0  0  0  0  0  0  0
    1.4745   19.9780   -2.5435 H   0  0  0  0  0  0  0  0  0  0  0  0
    2.6530   20.0310   -0.3690 H   0  0  0  0  0  0  0  0  0  0  0  0
   -0.7043   17.1198   -3.3718 H   0  0  0  0  0  0  0  0  0  0  0  0
   -0.4011   18.8266   -3.8423 H   0  0  0  0  0  0  0  0  0  0  0  0
    0.9489   17.6416   -3.8423 H   0  0  0  0  0  0  0  0  0  0  0  0
   -0.8787   19.1484   -0.2550 H   0  0  0  0  0  0  0  0  0  0  0  0
   -0.7757   20.1741   -1.7261 H   0  0  0  0  0  0  0  0  0  0  0  0
   -1.8093   18.7050   -1.7261 H   0  0  0  0  0  0  0  0  0  0  0  0
    2.0826   14.8958    1.6692 H   0  0  0  0  0  0  0  0  0  0  0  0
    3.7067   14.7092    0.9249 H   0  0  0  0  0  0  0  0  0  0  0  0
    2.8976   16.3130    0.9249 H   0  0  0  0  0  0  0  0  0  0  0  0
    3.8028   14.6122   -1.8095 H   0  0  0  0  0  0  0  0  0  0  0  0
    3.5258   13.3145   -0.5157 H   0  0  0  0  0  0  0  0  0  0  0  0
    2.1412   13.5755   -3.1989 H   0  0  0  0  0  0  0  0  0  0  0  0
    3.2663   12.2801   -2.6303 H   0  0  0  0  0  0  0  0  0  0  0  0
    1.5636   11.8055    0.3970 H   0  0  0  0  0  0  0  0  0  0  0  0
    1.4211   10.3340   -0.6234 H   0  0  0  0  0  0  0  0  0  0  0  0
    2.9464   11.2828   -0.6234 H   0  0  0  0  0  0  0  0  0  0  0  0
  1  2  1  0
  2  3  1  0
  3  4  1  0
  4  5  1  0
  5  6  1  0
  6  7  1  0
  7  8  1  0
  7  9  1  0
  2 10  1  0
 10 11  1  0
 11 12  1  0
 12 13  1  0
 13 14  1  6
 13 15  1  0
 15 16  1  0
 16 17  1  0
 17 18  2  0
 18 19  1  0
 19 20  1  0
 20 21  1  0
 21 22  1  0
 22 23  1  0
 22 24  1  0
 24 25  1  0
 24 26  1  0
 19 27  1  0
 27 28  1  1
 27 29  1  0
 29 30  1  0
 30 31  1  0
 31 32  1  1
  7  5  1  0
 31 10  1  0
 31 13  1  0
 27 15  1  0
 24 18  1  0
  1 33  1  0
  1 34  1  0
  1 35  1  0
  2 36  1  6
  3 37  1  0
  3 38  1  0
  4 39  1  0
  4 40  1  0
  5 41  1  1
  8 42  1  0
  8 43  1  0
  8 44  1  0
  9 45  1  0
  9 46  1  0
  9 47  1  0
 10 48  1  6
 11 49  1  0
 11 50  1  0
 12 51  1  0
 12 52  1  0
 14 53  1  0
 14 54  1  0
 14 55  1  0
 15 56  1  1
 16 57  1  0
 16 58  1  0
 17 59  1  0
 19 60  1  6
 20 61  1  0
 20 62  1  0
 21 63  1  0
 21 64  1  0
 22 65  1  6
 23 66  1  0
 25 67  1  0
 25 68  1  0
 25 69  1  0
 26 70  1  0
 26 71  1  0
 26 72  1  0
 28 73  1  0
 28 74  1  0
 28 75  1  0
 29 76  1  0
 29 77  1  0
 30 78  1  0
 30 79  1  0
 32 80  1  0
 32 81  1  0
 32 82  1  0
M  END
>  <meeko>  (6) 
{"is_sidechain": [false], "intermolecular_energy": 2.731, "internal_energy": -0.839}

$$$$
EPH_relaxed_0001_pdb2pqr_Repair_123_r2_0001_out
     RDKit          3D

 82 86  0  0  0  0  0  0  0  0999 V2000
   -0.2410   13.8800   -8.8670 C   0  0  0  0  0  0  0  0  0  0  0  0
    0.5510   14.4190   -7.6720 C   0  0  2  0  0  0  0  0  0  0  0  0
    1.8720   15.0870   -8.1050 C   0  0  0  0  0  0  0  0  0  0  0  0
    2.5790   14.3650   -9.2550 C   0  0  0  0  0  0  0  0  0  0  0  0
    2.8990   15.2980  -10.3830 C   0  0  2  0  0  0  0  0  0  0  0  0
    1.8670   16.2470  -10.6850 O   0  0  0  0  0  0  0  0  0  0  0  0
    2.1660   15.2870  -11.7110 C   0  0  0  0  0  0  0  0  0  0  0  0
    1.0570   14.3200  -11.9820 C   0  0  0  0  0  0  0  0  0  0  0  0
    2.8460   15.8750  -12.9080 C   0  0  0  0  0  0  0  0  0  0  0  0
    0.8360   13.2920   -6.6870 C   0  0  1  0  0  0  0  0  0  0  0  0
    2.0450   12.4170   -7.1120 C   0  0  0  0  0  0  0  0  0  0  0  0
    2.7640   11.9830   -5.8090 C   0  0  0  0  0  0  0  0  0  0  0  0
    1.7700   12.3380   -4.6780 C   0  0  1  0  0  0  0  0  0  0  0  0
    0.7490   11.1580   -4.6570 C   0  0  0  0  0  0  0  0  0  0  0  0
    2.3920   12.5900   -3.2660 C   0  0  2  0  0  0  0  0  0  0  0  0
    3.1140   11.3810   -2.6460 C   0  0  0  0  0  0  0  0  0  0  0  0
    2.2610   10.4930   -1.8020 C   0  0  0  0  0  0  0  0  0  0  0  0
    1.0440   10.8060   -1.3190 C   0  0  0  0  0  0  0  0  0  0  0  0
    0.4480   12.2040   -1.5300 C   0  0  1  0  0  0  0  0  0  0  0  0
   -0.1370   12.7240   -0.1910 C   0  0  0  0  0  0  0  0  0  0  0  0
   -1.1360   11.7510    0.4280 C   0  0  0  0  0  0  0  0  0  0  0  0
   -0.4910   10.3910    0.6760 C   0  0  2  0  0  0  0  0  0  0  0  0
    0.5100   10.5330    1.6890 O   0  0  0  0  0  0  0  0  0  0  0  0
    0.1420    9.7710   -0.6010 C   0  0  0  0  0  0  0  0  0  0  0  0
   -0.9770    9.3390   -1.5810 C   0  0  0  0  0  0  0  0  0  0  0  0
    0.8810    8.4700   -0.1850 C   0  0  0  0  0  0  0  0  0  0  0  0
    1.4010   13.2640   -2.2330 C   0  0  1  0  0  0  0  0  0  0  0  0
    2.2870   13.9740   -1.1640 C   0  0  0  0  0  0  0  0  0  0  0  0
    0.5190   14.3880   -2.8950 C   0  0  0  0  0  0  0  0  0  0  0  0
    0.0350   14.1330   -4.3350 C   0  0  0  0  0  0  0  0  0  0  0  0
    1.1950   13.6920   -5.2330 C   0  0  2  0  0  0  0  0  0  0  0  0
    2.2280   14.8690   -5.2920 C   0  0  0  0  0  0  0  0  0  0  0  0
   -1.0996   13.2957   -8.5044 H   0  0  0  0  0  0  0  0  0  0  0  0
   -0.6014   14.7211   -9.4774 H   0  0  0  0  0  0  0  0  0  0  0  0
    0.4092   13.2361   -9.4774 H   0  0  0  0  0  0  0  0  0  0  0  0
   -0.0654   15.1900   -7.1866 H   0  0  0  0  0  0  0  0  0  0  0  0
    1.6522   16.1165   -8.4242 H   0  0  0  0  0  0  0  0  0  0  0  0
    2.5490   15.0515   -7.2388 H   0  0  0  0  0  0  0  0  0  0  0  0
    3.5151   13.9267   -8.8787 H   0  0  0  0  0  0  0  0  0  0  0  0
    1.9035   13.5852   -9.6366 H   0  0  0  0  0  0  0  0  0  0  0  0
    3.9695   15.2740  -10.1311 H   0  0  0  0  0  0  0  0  0  0  0  0
    0.6436   13.9596  -11.0285 H   0  0  0  0  0  0  0  0  0  0  0  0
    0.2657   14.8217  -12.5584 H   0  0  0  0  0  0  0  0  0  0  0  0
    1.4463   13.4678  -12.5584 H   0  0  0  0  0  0  0  0  0  0  0  0
    3.6398   16.5614  -12.5784 H   0  0  0  0  0  0  0  0  0  0  0  0
    3.2864   15.0684  -13.5126 H   0  0  0  0  0  0  0  0  0  0  0  0
    2.1115   16.4272  -13.5126 H   0  0  0  0  0  0  0  0  0  0  0  0
   -0.1371   12.7795   -6.7078 H   0  0  0  0  0  0  0  0  0  0  0  0
    1.6963   11.5322   -7.6648 H   0  0  0  0  0  0  0  0  0  0  0  0
    2.7254   12.9770   -7.7704 H   0  0  0  0  0  0  0  0  0  0  0  0
    2.9696   10.9024   -5.8203 H   0  0  0  0  0  0  0  0  0  0  0  0
    3.7357   12.4828   -5.6824 H   0  0  0  0  0  0  0  0  0  0  0  0
    0.5182   10.8913   -3.6151 H   0  0  0  0  0  0  0  0  0  0  0  0
   -0.1747   11.4631   -5.1706 H   0  0  0  0  0  0  0  0  0  0  0  0
    1.1837   10.2878   -5.1706 H   0  0  0  0  0  0  0  0  0  0  0  0
    3.1783   13.3282   -3.4823 H   0  0  0  0  0  0  0  0  0  0  0  0
    3.5282   10.7755   -3.4656 H   0  0  0  0  0  0  0  0  0  0  0  0
    3.8798   11.7956   -1.9740 H   0  0  0  0  0  0  0  0  0  0  0  0
    2.6607    9.4987   -1.5537 H   0  0  0  0  0  0  0  0  0  0  0  0
   -0.3590   12.0837   -2.2678 H   0  0  0  0  0  0  0  0  0  0  0  0
    0.6894   12.8796    0.5181 H   0  0  0  0  0  0  0  0  0  0  0  0
   -0.6714   13.6621   -0.4020 H   0  0  0  0  0  0  0  0  0  0  0  0
   -1.4916   12.1606    1.3850 H   0  0  0  0  0  0  0  0  0  0  0  0
   -1.9759   11.6190   -0.2700 H   0  0  0  0  0  0  0  0  0  0  0  0
   -1.2865    9.7026    0.9975 H   0  0  0  0  0  0  0  0  0  0  0  0
    0.5570   11.4740    1.9260 H   0  0  0  0  0  0  0  0  0  0  0  0
   -1.8540    9.0004   -1.0099 H   0  0  0  0  0  0  0  0  0  0  0  0
   -1.2593   10.1928   -2.2146 H   0  0  0  0  0  0  0  0  0  0  0  0
   -0.6124    8.5170   -2.2146 H   0  0  0  0  0  0  0  0  0  0  0  0
    0.9183    8.4044    0.9124 H   0  0  0  0  0  0  0  0  0  0  0  0
    0.3431    7.5985   -0.5864 H   0  0  0  0  0  0  0  0  0  0  0  0
    1.9050    8.4856   -0.5864 H   0  0  0  0  0  0  0  0  0  0  0  0
    1.9405   13.6964   -0.1576 H   0  0  0  0  0  0  0  0  0  0  0  0
    3.3344   13.6624   -1.2902 H   0  0  0  0  0  0  0  0  0  0  0  0
    2.2111   15.0641   -1.2902 H   0  0  0  0  0  0  0  0  0  0  0  0
   -0.3715   14.5269   -2.2643 H   0  0  0  0  0  0  0  0  0  0  0  0
    1.1768   15.2669   -2.9638 H   0  0  0  0  0  0  0  0  0  0  0  0
   -0.7309   13.3435   -4.3228 H   0  0  0  0  0  0  0  0  0  0  0  0
   -0.3828   15.0684   -4.7356 H   0  0  0  0  0  0  0  0  0  0  0  0
    2.4954   15.1737   -4.2694 H   0  0  0  0  0  0  0  0  0  0  0  0
    3.1319   14.5373   -5.8240 H   0  0  0  0  0  0  0  0  0  0  0  0
    1.7818   15.7222   -5.8240 H   0  0  0  0  0  0  0  0  0  0  0  0
  1  2  1  0
  2  3  1  0
  3  4  1  0
  4  5  1  0
  5  6  1  0
  6  7  1  0
  7  8  1  0
  7  9  1  0
  2 10  1  0
 10 11  1  0
 11 12  1  0
 12 13  1  0
 13 14  1  1
 13 15  1  0
 15 16  1  0
 16 17  1  0
 17 18  2  0
 18 19  1  0
 19 20  1  0
 20 21  1  0
 21 22  1  0
 22 23  1  0
 22 24  1  0
 24 25  1  0
 24 26  1  0
 19 27  1  0
 27 28  1  1
 27 29  1  0
 29 30  1  0
 30 31  1  0
 31 32  1  6
  7  5  1  0
 31 10  1  0
 31 13  1  0
 27 15  1  0
 24 18  1  0
  1 33  1  0
  1 34  1  0
  1 35  1  0
  2 36  1  1
  3 37  1  0
  3 38  1  0
  4 39  1  0
  4 40  1  0
  5 41  1  6
  8 42  1  0
  8 43  1  0
  8 44  1  0
  9 45  1  0
  9 46  1  0
  9 47  1  0
 10 48  1  1
 11 49  1  0
 11 50  1  0
 12 51  1  0
 12 52  1  0
 14 53  1  0
 14 54  1  0
 14 55  1  0
 15 56  1  6
 16 57  1  0
 16 58  1  0
 17 59  1  0
 19 60  1  6
 20 61  1  0
 20 62  1  0
 21 63  1  0
 21 64  1  0
 22 65  1  1
 23 66  1  0
 25 67  1  0
 25 68  1  0
 25 69  1  0
 26 70  1  0
 26 71  1  0
 26 72  1  0
 28 73  1  0
 28 74  1  0
 28 75  1  0
 29 76  1  0
 29 77  1  0
 30 78  1  0
 30 79  1  0
 32 80  1  0
 32 81  1  0
 32 82  1  0
M  END
>  <meeko>  (7) 
{"is_sidechain": [false], "intermolecular_energy": 2.731, "internal_energy": -0.839}

$$$$
EPH_relaxed_0001_pdb2pqr_Repair_123_r2_0001_out
     RDKit          3D

 82 86  0  0  0  0  0  0  0  0999 V2000
   -2.8290    7.7760   -0.3740 C   0  0  0  0  0  0  0  0  0  0  0  0
   -3.2480    9.2280   -0.1240 C   0  0  2  0  0  0  0  0  0  0  0  0
   -4.7690    9.4290   -0.2870 C   0  0  0  0  0  0  0  0  0  0  0  0
   -5.3090    8.9660   -1.6420 C   0  0  0  0  0  0  0  0  0  0  0  0
   -6.5000    8.0690   -1.4870 C   0  0  2  0  0  0  0  0  0  0  0  0
   -6.2050    6.7680   -0.9620 O   0  0  0  0  0  0  0  0  0  0  0  0
   -6.7110    6.8090   -2.3060 C   0  0  0  0  0  0  0  0  0  0  0  0
   -5.7210    6.3770   -3.3420 C   0  0  0  0  0  0  0  0  0  0  0  0
   -8.1000    6.2690   -2.4440 C   0  0  0  0  0  0  0  0  0  0  0  0
   -2.4960   10.1560   -1.0710 C   0  0  1  0  0  0  0  0  0  0  0  0
   -3.1130   11.5800   -1.1260 C   0  0  0  0  0  0  0  0  0  0  0  0
   -1.9340   12.5700   -1.3080 C   0  0  0  0  0  0  0  0  0  0  0  0
   -0.7280   11.6770   -1.6820 C   0  0  1  0  0  0  0  0  0  0  0  0
   -0.8930   11.3980   -3.2090 C   0  0  0  0  0  0  0  0  0  0  0  0
    0.6870   12.2540   -1.3500 C   0  0  2  0  0  0  0  0  0  0  0  0
    1.0520   13.5540   -2.0880 C   0  0  0  0  0  0  0  0  0  0  0  0
    1.7420   13.3710   -3.3990 C   0  0  0  0  0  0  0  0  0  0  0  0
    2.3110   12.2300   -3.8310 C   0  0  0  0  0  0  0  0  0  0  0  0
    2.3800   10.9930   -2.9270 C   0  0  1  0  0  0  0  0  0  0  0  0
    3.8090   10.3910   -2.9800 C   0  0  0  0  0  0  0  0  0  0  0  0
    4.2680   10.0980   -4.4050 C   0  0  0  0  0  0  0  0  0  0  0  0
    4.2410   11.3640   -5.2580 C   0  0  2  0  0  0  0  0  0  0  0  0
    5.2320   12.2720   -4.7670 O   0  0  0  0  0  0  0  0  0  0  0  0
    2.8530   12.0640   -5.2720 C   0  0  0  0  0  0  0  0  0  0  0  0
    1.8450   11.2040   -6.0740 C   0  0  0  0  0  0  0  0  0  0  0  0
    3.0000   13.3990   -6.0500 C   0  0  0  0  0  0  0  0  0  0  0  0
    1.8570   11.1910   -1.4390 C   0  0  1  0  0  0  0  0  0  0  0  0
    3.0110   11.7230   -0.5350 C   0  0  0  0  0  0  0  0  0  0  0  0
    1.4400    9.7920   -0.8500 C   0  0  0  0  0  0  0  0  0  0  0  0
   -0.0070    9.3320   -1.1090 C   0  0  0  0  0  0  0  0  0  0  0  0
   -1.0060   10.4380   -0.7550 C   0  0  2  0  0  0  0  0  0  0  0  0
   -0.8780   10.7250    0.7800 C   0  0  0  0  0  0  0  0  0  0  0  0
   -2.6818    7.2658    0.5893 H   0  0  0  0  0  0  0  0  0  0  0  0
   -3.6151    7.2607   -0.9454 H   0  0  0  0  0  0  0  0  0  0  0  0
   -1.8892    7.7588   -0.9454 H   0  0  0  0  0  0  0  0  0  0  0  0
   -2.9918    9.4723    0.9175 H   0  0  0  0  0  0  0  0  0  0  0  0
   -5.2811    8.8607    0.5035 H   0  0  0  0  0  0  0  0  0  0  0  0
   -4.9597   10.5101   -0.2174 H   0  0  0  0  0  0  0  0  0  0  0  0
   -5.6016    9.8487   -2.2296 H   0  0  0  0  0  0  0  0  0  0  0  0
   -4.5162    8.3985   -2.1513 H   0  0  0  0  0  0  0  0  0  0  0  0
   -7.1512    8.9305   -1.2777 H   0  0  0  0  0  0  0  0  0  0  0  0
   -4.8205    5.9841   -2.8473 H   0  0  0  0  0  0  0  0  0  0  0  0
   -6.1667    5.5915   -3.9700 H   0  0  0  0  0  0  0  0  0  0  0  0
   -5.4482    7.2379   -3.9700 H   0  0  0  0  0  0  0  0  0  0  0  0
   -8.5294    6.1021   -1.4451 H   0  0  0  0  0  0  0  0  0  0  0  0
   -8.7212    6.9911   -2.9941 H   0  0  0  0  0  0  0  0  0  0  0  0
   -8.0703    5.3169   -2.9941 H   0  0  0  0  0  0  0  0  0  0  0  0
   -2.5800    9.5776   -2.0029 H   0  0  0  0  0  0  0  0  0  0  0  0
   -3.8088   11.6591   -1.9743 H   0  0  0  0  0  0  0  0  0  0  0  0
   -3.6779   11.8020   -0.2086 H   0  0  0  0  0  0  0  0  0  0  0  0
   -2.1503   13.2875   -2.1133 H   0  0  0  0  0  0  0  0  0  0  0  0
   -1.7465   13.1660   -0.4026 H   0  0  0  0  0  0  0  0  0  0  0  0
   -1.4482   10.4593   -3.3523 H   0  0  0  0  0  0  0  0  0  0  0  0
   -1.4466   12.2263   -3.6754 H   0  0  0  0  0  0  0  0  0  0  0  0
    0.0995   11.3119   -3.6754 H   0  0  0  0  0  0  0  0  0  0  0  0
    0.5860   12.5310   -0.2903 H   0  0  0  0  0  0  0  0  0  0  0  0
    0.1230   14.1148   -2.2683 H   0  0  0  0  0  0  0  0  0  0  0  0
    1.7665   14.0818   -1.4392 H   0  0  0  0  0  0  0  0  0  0  0  0
    1.7895   14.2423   -4.0688 H   0  0  0  0  0  0  0  0  0  0  0  0
    1.6566   10.2747   -3.3402 H   0  0  0  0  0  0  0  0  0  0  0  0
    4.5098   11.1056   -2.5238 H   0  0  0  0  0  0  0  0  0  0  0  0
    3.7899    9.4370   -2.4326 H   0  0  0  0  0  0  0  0  0  0  0  0
    5.2945    9.7035   -4.3787 H   0  0  0  0  0  0  0  0  0  0  0  0
    3.5838    9.3603   -4.8496 H   0  0  0  0  0  0  0  0  0  0  0  0
    4.4532   11.0669   -6.2956 H   0  0  0  0  0  0  0  0  0  0  0  0
    6.0590   12.0930   -5.2460 H   0  0  0  0  0  0  0  0  0  0  0  0
    1.1978   10.6519   -5.3766 H   0  0  0  0  0  0  0  0  0  0  0  0
    1.2277   11.8579   -6.7075 H   0  0  0  0  0  0  0  0  0  0  0  0
    2.3936   10.4914   -6.7075 H   0  0  0  0  0  0  0  0  0  0  0  0
    3.0916   14.2311   -5.3364 H   0  0  0  0  0  0  0  0  0  0  0  0
    3.8990   13.3577   -6.6825 H   0  0  0  0  0  0  0  0  0  0  0  0
    2.1135   13.5543   -6.6825 H   0  0  0  0  0  0  0  0  0  0  0  0
    2.7364   11.5964    0.5226 H   0  0  0  0  0  0  0  0  0  0  0  0
    3.9313   11.1583   -0.7450 H   0  0  0  0  0  0  0  0  0  0  0  0
    3.1793   12.7896   -0.7450 H   0  0  0  0  0  0  0  0  0  0  0  0
    2.1118    9.0356   -1.2819 H   0  0  0  0  0  0  0  0  0  0  0  0
    1.5145    9.9059    0.2416 H   0  0  0  0  0  0  0  0  0  0  0  0
   -0.1176    9.0742   -2.1726 H   0  0  0  0  0  0  0  0  0  0  0  0
   -0.2149    8.4562   -0.4767 H   0  0  0  0  0  0  0  0  0  0  0  0
   -1.2619    9.8642    1.3472 H   0  0  0  0  0  0  0  0  0  0  0  0
    0.1791   10.8903    1.0352 H   0  0  0  0  0  0  0  0  0  0  0  0
   -1.4614   11.6220    1.0352 H   0  0  0  0  0  0  0  0  0  0  0  0
  1  2  1  0
  2  3  1  0
  3  4  1  0
  4  5  1  0
  5  6  1  0
  6  7  1  0
  7  8  1  0
  7  9  1  0
  2 10  1  0
 10 11  1  0
 11 12  1  0
 12 13  1  0
 13 14  1  6
 13 15  1  0
 15 16  1  0
 16 17  1  0
 17 18  2  0
 18 19  1  0
 19 20  1  0
 20 21  1  0
 21 22  1  0
 22 23  1  0
 22 24  1  0
 24 25  1  0
 24 26  1  0
 19 27  1  0
 27 28  1  1
 27 29  1  0
 29 30  1  0
 30 31  1  0
 31 32  1  1
  7  5  1  0
 31 10  1  0
 31 13  1  0
 27 15  1  0
 24 18  1  0
  1 33  1  0
  1 34  1  0
  1 35  1  0
  2 36  1  1
  3 37  1  0
  3 38  1  0
  4 39  1  0
  4 40  1  0
  5 41  1  1
  8 42  1  0
  8 43  1  0
  8 44  1  0
  9 45  1  0
  9 46  1  0
  9 47  1  0
 10 48  1  6
 11 49  1  0
 11 50  1  0
 12 51  1  0
 12 52  1  0
 14 53  1  0
 14 54  1  0
 14 55  1  0
 15 56  1  1
 16 57  1  0
 16 58  1  0
 17 59  1  0
 19 60  1  6
 20 61  1  0
 20 62  1  0
 21 63  1  0
 21 64  1  0
 22 65  1  6
 23 66  1  0
 25 67  1  0
 25 68  1  0
 25 69  1  0
 26 70  1  0
 26 71  1  0
 26 72  1  0
 28 73  1  0
 28 74  1  0
 28 75  1  0
 29 76  1  0
 29 77  1  0
 30 78  1  0
 30 79  1  0
 32 80  1  0
 32 81  1  0
 32 82  1  0
M  END
>  <meeko>  (8) 
{"is_sidechain": [false], "intermolecular_energy": 2.731, "internal_energy": -0.839}

$$$$
EPH_relaxed_0001_pdb2pqr_Repair_123_r2_0001_out
     RDKit          3D

 82 86  0  0  0  0  0  0  0  0999 V2000
    3.0720   18.4020   -3.9340 C   0  0  0  0  0  0  0  0  0  0  0  0
    2.0100   18.2380   -2.8430 C   0  0  2  0  0  0  0  0  0  0  0  0
    2.0180   19.4120   -1.8430 C   0  0  0  0  0  0  0  0  0  0  0  0
    0.7030   20.1940   -1.8010 C   0  0  0  0  0  0  0  0  0  0  0  0
   -0.3940   19.4010   -1.1580 C   0  0  2  0  0  0  0  0  0  0  0  0
   -1.4350   20.1890   -0.5650 O   0  0  0  0  0  0  0  0  0  0  0  0
   -0.6520   19.3910    0.3380 C   0  0  0  0  0  0  0  0  0  0  0  0
    0.1920   20.1900    1.2810 C   0  0  0  0  0  0  0  0  0  0  0  0
   -1.4020   18.2370    0.9270 C   0  0  0  0  0  0  0  0  0  0  0  0
    2.2230   16.9230   -2.1040 C   0  0  1  0  0  0  0  0  0  0  0  0
    2.5780   17.1290   -0.6070 C   0  0  0  0  0  0  0  0  0  0  0  0
    1.9260   15.9590    0.1730 C   0  0  0  0  0  0  0  0  0  0  0  0
    1.5050   14.9480   -0.9200 C   0  0  1  0  0  0  0  0  0  0  0  0
    2.8090   14.1600   -1.2610 C   0  0  0  0  0  0  0  0  0  0  0  0
    0.3280   13.9860   -0.5540 C   0  0  2  0  0  0  0  0  0  0  0  0
    0.6030   13.0370    0.6250 C   0  0  0  0  0  0  0  0  0  0  0  0
    1.1960   11.7170    0.2570 C   0  0  0  0  0  0  0  0  0  0  0  0
    1.2340   11.1960   -0.9840 C   0  0  0  0  0  0  0  0  0  0  0  0
    0.5540   11.9090   -2.1590 C   0  0  1  0  0  0  0  0  0  0  0  0
   -0.2710   10.8830   -2.9800 C   0  0  0  0  0  0  0  0  0  0  0  0
    0.5620    9.6860   -3.4270 C   0  0  0  0  0  0  0  0  0  0  0  0
    1.1740    8.9690   -2.2270 C   0  0  2  0  0  0  0  0  0  0  0  0
    0.1220    8.3760   -1.4580 O   0  0  0  0  0  0  0  0  0  0  0  0
    2.0210    9.9050   -1.3200 C   0  0  0  0  0  0  0  0  0  0  0  0
    3.3220   10.3060   -2.0570 C   0  0  0  0  0  0  0  0  0  0  0  0
    2.4620    9.0910   -0.0730 C   0  0  0  0  0  0  0  0  0  0  0  0
   -0.2820   13.2100   -1.7910 C   0  0  1  0  0  0  0  0  0  0  0  0
   -1.7370   12.8130   -1.3940 C   0  0  0  0  0  0  0  0  0  0  0  0
   -0.4040   14.1210   -3.0690 C   0  0  0  0  0  0  0  0  0  0  0  0
    0.7320   15.1340   -3.3100 C   0  0  0  0  0  0  0  0  0  0  0  0
    1.0260   15.9400   -2.0410 C   0  0  2  0  0  0  0  0  0  0  0  0
   -0.2600   16.7600   -1.6860 C   0  0  0  0  0  0  0  0  0  0  0  0
    4.0565   18.5540   -3.4675 H   0  0  0  0  0  0  0  0  0  0  0  0
    3.0983   17.4973   -4.5591 H   0  0  0  0  0  0  0  0  0  0  0  0
    2.8241   19.2725   -4.5591 H   0  0  0  0  0  0  0  0  0  0  0  0
    1.0270   18.2320   -3.3366 H   0  0  0  0  0  0  0  0  0  0  0  0
    2.2156   19.0107   -0.8380 H   0  0  0  0  0  0  0  0  0  0  0  0
    2.7979   20.1125   -2.1762 H   0  0  0  0  0  0  0  0  0  0  0  0
    0.8571   21.1197   -1.2271 H   0  0  0  0  0  0  0  0  0  0  0  0
    0.4036   20.4166   -2.8358 H   0  0  0  0  0  0  0  0  0  0  0  0
   -0.2701   18.5905   -1.8913 H   0  0  0  0  0  0  0  0  0  0  0  0
   -0.0758   19.9365    2.3174 H   0  0  0  0  0  0  0  0  0  0  0  0
    1.2535   19.9581    1.1094 H   0  0  0  0  0  0  0  0  0  0  0  0
    0.0186   21.2626    1.1094 H   0  0  0  0  0  0  0  0  0  0  0  0
   -1.3633   18.2965    2.0247 H   0  0  0  0  0  0  0  0  0  0  0  0
   -2.4499   18.2727    0.5945 H   0  0  0  0  0  0  0  0  0  0  0  0
   -0.9438   17.2939    0.5945 H   0  0  0  0  0  0  0  0  0  0  0  0
    3.0297   16.4959   -2.7178 H   0  0  0  0  0  0  0  0  0  0  0  0
    3.6694   17.1131   -0.4710 H   0  0  0  0  0  0  0  0  0  0  0  0
    2.2091   18.0996   -0.2438 H   0  0  0  0  0  0  0  0  0  0  0  0
    2.6490   15.5034    0.8657 H   0  0  0  0  0  0  0  0  0  0  0  0
    1.0744   16.2895    0.7859 H   0  0  0  0  0  0  0  0  0  0  0  0
    3.3091   13.8578   -0.3290 H   0  0  0  0  0  0  0  0  0  0  0  0
    2.5538   13.2648   -1.8471 H   0  0  0  0  0  0  0  0  0  0  0  0
    3.4828   14.8022   -1.8471 H   0  0  0  0  0  0  0  0  0  0  0  0
   -0.4459   14.6833   -0.2007 H   0  0  0  0  0  0  0  0  0  0  0  0
    1.2976   13.5417    1.3126 H   0  0  0  0  0  0  0  0  0  0  0  0
   -0.3773   12.8158    1.0724 H   0  0  0  0  0  0  0  0  0  0  0  0
    1.6390   11.1201    1.0678 H   0  0  0  0  0  0  0  0  0  0  0  0
    1.3664   12.3162   -2.7789 H   0  0  0  0  0  0  0  0  0  0  0  0
   -1.1029   10.5210   -2.3580 H   0  0  0  0  0  0  0  0  0  0  0  0
   -0.6338   11.3936   -3.8843 H   0  0  0  0  0  0  0  0  0  0  0  0
   -0.0826    8.9836   -3.9758 H   0  0  0  0  0  0  0  0  0  0  0  0
    1.3759   10.0463   -4.0733 H   0  0  0  0  0  0  0  0  0  0  0  0
    1.8616    8.2036   -2.6159 H   0  0  0  0  0  0  0  0  0  0  0  0
   -0.6050    8.1660   -2.0680 H   0  0  0  0  0  0  0  0  0  0  0  0
    4.1020   10.5464   -1.3195 H   0  0  0  0  0  0  0  0  0  0  0  0
    3.6588    9.4700   -2.6876 H   0  0  0  0  0  0  0  0  0  0  0  0
    3.1297   11.1866   -2.6876 H   0  0  0  0  0  0  0  0  0  0  0  0
    2.1695    9.6310    0.8396 H   0  0  0  0  0  0  0  0  0  0  0  0
    1.9747    8.1049   -0.0877 H   0  0  0  0  0  0  0  0  0  0  0  0
    3.5541    8.9606   -0.0877 H   0  0  0  0  0  0  0  0  0  0  0  0
   -1.8244   12.7892   -0.2977 H   0  0  0  0  0  0  0  0  0  0  0  0
   -2.4428   13.5514   -1.8021 H   0  0  0  0  0  0  0  0  0  0  0  0
   -1.9700   11.8184   -1.8021 H   0  0  0  0  0  0  0  0  0  0  0  0
   -0.4517   13.4592   -3.9463 H   0  0  0  0  0  0  0  0  0  0  0  0
   -1.3040   14.7313   -2.9032 H   0  0  0  0  0  0  0  0  0  0  0  0
    1.6405   14.5913   -3.6102 H   0  0  0  0  0  0  0  0  0  0  0  0
    0.4195   15.8295   -4.1028 H   0  0  0  0  0  0  0  0  0  0  0  0
   -0.3629   16.8256   -0.5928 H   0  0  0  0  0  0  0  0  0  0  0  0
   -0.1774   17.7725   -2.1079 H   0  0  0  0  0  0  0  0  0  0  0  0
   -1.1431   16.2579   -2.1079 H   0  0  0  0  0  0  0  0  0  0  0  0
  1  2  1  0
  2  3  1  0
  3  4  1  0
  4  5  1  0
  5  6  1  0
  6  7  1  0
  7  8  1  0
  7  9  1  0
  2 10  1  0
 10 11  1  0
 11 12  1  0
 12 13  1  0
 13 14  1  6
 13 15  1  0
 15 16  1  0
 16 17  1  0
 17 18  2  0
 18 19  1  0
 19 20  1  0
 20 21  1  0
 21 22  1  0
 22 23  1  0
 22 24  1  0
 24 25  1  0
 24 26  1  0
 19 27  1  0
 27 28  1  1
 27 29  1  0
 29 30  1  0
 30 31  1  0
 31 32  1  1
  7  5  1  0
 31 10  1  0
 31 13  1  0
 27 15  1  0
 24 18  1  0
  1 33  1  0
  1 34  1  0
  1 35  1  0
  2 36  1  6
  3 37  1  0
  3 38  1  0
  4 39  1  0
  4 40  1  0
  5 41  1  6
  8 42  1  0
  8 43  1  0
  8 44  1  0
  9 45  1  0
  9 46  1  0
  9 47  1  0
 10 48  1  6
 11 49  1  0
 11 50  1  0
 12 51  1  0
 12 52  1  0
 14 53  1  0
 14 54  1  0
 14 55  1  0
 15 56  1  1
 16 57  1  0
 16 58  1  0
 17 59  1  0
 19 60  1  6
 20 61  1  0
 20 62  1  0
 21 63  1  0
 21 64  1  0
 22 65  1  6
 23 66  1  0
 25 67  1  0
 25 68  1  0
 25 69  1  0
 26 70  1  0
 26 71  1  0
 26 72  1  0
 28 73  1  0
 28 74  1  0
 28 75  1  0
 29 76  1  0
 29 77  1  0
 30 78  1  0
 30 79  1  0
 32 80  1  0
 32 81  1  0
 32 82  1  0
M  END
>  <meeko>  (9) 
{"is_sidechain": [false], "intermolecular_energy": 2.731, "internal_energy": -0.839}

$$$$
EPH_relaxed_0001_pdb2pqr_Repair_123_r2_0001_out
     RDKit          3D

 82 86  0  0  0  0  0  0  0  0999 V2000
    0.0940    9.3240   -2.3220 C   0  0  0  0  0  0  0  0  0  0  0  0
    1.1390   10.3540   -2.7610 C   0  0  2  0  0  0  0  0  0  0  0  0
    2.5550    9.7490   -2.8330 C   0  0  0  0  0  0  0  0  0  0  0  0
    3.4960   10.4970   -3.7810 C   0  0  0  0  0  0  0  0  0  0  0  0
    4.8990   10.5350   -3.2550 C   0  0  2  0  0  0  0  0  0  0  0  0
    5.5290   11.8210   -3.3220 O   0  0  0  0  0  0  0  0  0  0  0  0
    6.1140   10.7860   -4.1290 C   0  0  0  0  0  0  0  0  0  0  0  0
    5.9820   11.0140   -5.6020 C   0  0  0  0  0  0  0  0  0  0  0  0
    7.4520   10.3260   -3.6420 C   0  0  0  0  0  0  0  0  0  0  0  0
    1.1270   11.5440   -1.8090 C   0  0  1  0  0  0  0  0  0  0  0  0
    2.1620   11.4000   -0.6610 C   0  0  0  0  0  0  0  0  0  0  0  0
    2.6940   12.8250   -0.3580 C   0  0  0  0  0  0  0  0  0  0  0  0
    1.7190   13.7710   -1.0980 C   0  0  1  0  0  0  0  0  0  0  0  0
    0.4840   13.8940   -0.1520 C   0  0  0  0  0  0  0  0  0  0  0  0
    2.2850   15.1730   -1.4940 C   0  0  2  0  0  0  0  0  0  0  0  0
    2.7090   16.0630   -0.3130 C   0  0  0  0  0  0  0  0  0  0  0  0
    1.6420   16.9580    0.2270 C   0  0  0  0  0  0  0  0  0  0  0  0
    0.4830   17.2540   -0.3910 C   0  0  0  0  0  0  0  0  0  0  0  0
    0.1940   16.7450   -1.8090 C   0  0  1  0  0  0  0  0  0  0  0  0
   -0.3620   17.9070   -2.6730 C   0  0  0  0  0  0  0  0  0  0  0  0
   -1.5730   18.5820   -2.0370 C   0  0  0  0  0  0  0  0  0  0  0  0
   -1.2300   19.1260   -0.6530 C   0  0  2  0  0  0  0  0  0  0  0  0
   -0.2900   20.1940   -0.7970 O   0  0  0  0  0  0  0  0  0  0  0  0
   -0.6520   18.0460    0.3040 C   0  0  0  0  0  0  0  0  0  0  0  0
   -1.7680   17.0490    0.7000 C   0  0  0  0  0  0  0  0  0  0  0  0
   -0.2170   18.7540    1.6160 C   0  0  0  0  0  0  0  0  0  0  0  0
    1.3830   15.9690   -2.5230 C   0  0  1  0  0  0  0  0  0  0  0  0
    2.3220   16.9820   -3.2470 C   0  0  0  0  0  0  0  0  0  0  0  0
    0.7890   15.0360   -3.6440 C   0  0  0  0  0  0  0  0  0  0  0  0
    0.3590   13.6200   -3.2130 C   0  0  0  0  0  0  0  0  0  0  0  0
    1.4630   12.9340   -2.4040 C   0  0  2  0  0  0  0  0  0  0  0  0
    2.7120   12.7760   -3.3370 C   0  0  0  0  0  0  0  0  0  0  0  0
    0.0555    9.2861   -1.2233 H   0  0  0  0  0  0  0  0  0  0  0  0
   -0.8925    9.6127   -2.7137 H   0  0  0  0  0  0  0  0  0  0  0  0
    0.3684    8.3334   -2.7137 H   0  0  0  0  0  0  0  0  0  0  0  0
    0.8713   10.6871   -3.7746 H   0  0  0  0  0  0  0  0  0  0  0  0
    2.9922    9.7672   -1.8238 H   0  0  0  0  0  0  0  0  0  0  0  0
    2.4485    8.7270   -3.2257 H   0  0  0  0  0  0  0  0  0  0  0  0
    3.4951    9.9901   -4.7573 H   0  0  0  0  0  0  0  0  0  0  0  0
    3.1368   11.5326   -3.8736 H   0  0  0  0  0  0  0  0  0  0  0  0
    4.6691    9.7507   -2.5188 H   0  0  0  0  0  0  0  0  0  0  0  0
    5.4382   11.9534   -5.7803 H   0  0  0  0  0  0  0  0  0  0  0  0
    6.9827   11.0781   -6.0542 H   0  0  0  0  0  0  0  0  0  0  0  0
    5.4281   10.1781   -6.0542 H   0  0  0  0  0  0  0  0  0  0  0  0
    7.4607   10.3230   -2.5420 H   0  0  0  0  0  0  0  0  0  0  0  0
    7.6475    9.3091   -4.0130 H   0  0  0  0  0  0  0  0  0  0  0  0
    8.2315   11.0078   -4.0130 H   0  0  0  0  0  0  0  0  0  0  0  0
    0.0743   11.5159   -1.4910 H   0  0  0  0  0  0  0  0  0  0  0  0
    1.6800   10.9774    0.2329 H   0  0  0  0  0  0  0  0  0  0  0  0
    2.9814   10.7253   -0.9498 H   0  0  0  0  0  0  0  0  0  0  0  0
    2.6806   13.0226    0.7240 H   0  0  0  0  0  0  0  0  0  0  0  0
    3.7354   12.9599   -0.6855 H   0  0  0  0  0  0  0  0  0  0  0  0
    0.8194   13.8606    0.8951 H   0  0  0  0  0  0  0  0  0  0  0  0
   -0.0300   14.8478   -0.3421 H   0  0  0  0  0  0  0  0  0  0  0  0
   -0.2080   13.0603   -0.3421 H   0  0  0  0  0  0  0  0  0  0  0  0
    3.2152   14.9118   -2.0199 H   0  0  0  0  0  0  0  0  0  0  0  0
    3.0473   15.4070    0.5026 H   0  0  0  0  0  0  0  0  0  0  0  0
    3.4961   16.7270   -0.6997 H   0  0  0  0  0  0  0  0  0  0  0  0
    1.8179   17.4137    1.2126 H   0  0  0  0  0  0  0  0  0  0  0  0
   -0.5703   15.9614   -1.7006 H   0  0  0  0  0  0  0  0  0  0  0  0
    0.4307   18.6579   -2.8060 H   0  0  0  0  0  0  0  0  0  0  0  0
   -0.6838   17.4827   -3.6355 H   0  0  0  0  0  0  0  0  0  0  0  0
   -1.9007   19.4127   -2.6793 H   0  0  0  0  0  0  0  0  0  0  0  0
   -2.3755   17.8370   -1.9324 H   0  0  0  0  0  0  0  0  0  0  0  0
   -2.1662   19.4803   -0.1969 H   0  0  0  0  0  0  0  0  0  0  0  0
   -0.3250   20.4940   -1.7210 H   0  0  0  0  0  0  0  0  0  0  0  0
   -1.8345   16.9896    1.7964 H   0  0  0  0  0  0  0  0  0  0  0  0
   -2.7296   17.3943    0.2925 H   0  0  0  0  0  0  0  0  0  0  0  0
   -1.5329   16.0547    0.2925 H   0  0  0  0  0  0  0  0  0  0  0  0
   -0.5730   18.1747    2.4807 H   0  0  0  0  0  0  0  0  0  0  0  0
    0.8803   18.8242    1.6483 H   0  0  0  0  0  0  0  0  0  0  0  0
   -0.6502   19.7646    1.6483 H   0  0  0  0  0  0  0  0  0  0  0  0
    2.8701   17.5733   -2.4987 H   0  0  0  0  0  0  0  0  0  0  0  0
    3.0378   16.4331   -3.8765 H   0  0  0  0  0  0  0  0  0  0  0  0
    1.7204   17.6542   -3.8765 H   0  0  0  0  0  0  0  0  0  0  0  0
   -0.0950   15.5395   -4.0623 H   0  0  0  0  0  0  0  0  0  0  0  0
    1.6122   14.8825   -4.3573 H   0  0  0  0  0  0  0  0  0  0  0  0
   -0.5481   13.6920   -2.5949 H   0  0  0  0  0  0  0  0  0  0  0  0
    0.1636   13.0229   -4.1160 H   0  0  0  0  0  0  0  0  0  0  0  0
    3.6169   12.6615   -2.7221 H   0  0  0  0  0  0  0  0  0  0  0  0
    2.5852   11.8867   -3.9719 H   0  0  0  0  0  0  0  0  0  0  0  0
    2.8107   13.6688   -3.9719 H   0  0  0  0  0  0  0  0  0  0  0  0
  1  2  1  0
  2  3  1  0
  3  4  1  0
  4  5  1  0
  5  6  1  0
  6  7  1  0
  7  8  1  0
  7  9  1  0
  2 10  1  0
 10 11  1  0
 11 12  1  0
 12 13  1  0
 13 14  1  1
 13 15  1  0
 15 16  1  0
 16 17  1  0
 17 18  2  0
 18 19  1  0
 19 20  1  0
 20 21  1  0
 21 22  1  0
 22 23  1  0
 22 24  1  0
 24 25  1  0
 24 26  1  0
 19 27  1  0
 27 28  1  6
 27 29  1  0
 29 30  1  0
 30 31  1  0
 31 32  1  6
  7  5  1  0
 31 10  1  0
 31 13  1  0
 27 15  1  0
 24 18  1  0
  1 33  1  0
  1 34  1  0
  1 35  1  0
  2 36  1  6
  3 37  1  0
  3 38  1  0
  4 39  1  0
  4 40  1  0
  5 41  1  1
  8 42  1  0
  8 43  1  0
  8 44  1  0
  9 45  1  0
  9 46  1  0
  9 47  1  0
 10 48  1  1
 11 49  1  0
 11 50  1  0
 12 51  1  0
 12 52  1  0
 14 53  1  0
 14 54  1  0
 14 55  1  0
 15 56  1  6
 16 57  1  0
 16 58  1  0
 17 59  1  0
 19 60  1  1
 20 61  1  0
 20 62  1  0
 21 63  1  0
 21 64  1  0
 22 65  1  1
 23 66  1  0
 25 67  1  0
 25 68  1  0
 25 69  1  0
 26 70  1  0
 26 71  1  0
 26 72  1  0
 28 73  1  0
 28 74  1  0
 28 75  1  0
 29 76  1  0
 29 77  1  0
 30 78  1  0
 30 79  1  0
 32 80  1  0
 32 81  1  0
 32 82  1  0
M  END
>  <meeko>  (10) 
{"is_sidechain": [false], "intermolecular_energy": 2.731, "internal_energy": -0.839}

$$$$
EPH_relaxed_0001_pdb2pqr_Repair_123_r2_0001_out
     RDKit          3D

 82 86  0  0  0  0  0  0  0  0999 V2000
    2.4100   10.2760   -3.1360 C   0  0  0  0  0  0  0  0  0  0  0  0
    1.3270   10.1960   -2.0570 C   0  0  2  0  0  0  0  0  0  0  0  0
   -0.0680    9.9240   -2.6540 C   0  0  0  0  0  0  0  0  0  0  0  0
   -0.7250    8.6460   -2.1250 C   0  0  0  0  0  0  0  0  0  0  0  0
   -2.0790    8.9190   -1.5420 C   0  0  2  0  0  0  0  0  0  0  0  0
   -2.4110   10.3090   -1.4260 O   0  0  0  0  0  0  0  0  0  0  0  0
   -2.2910    9.5810   -0.1930 C   0  0  0  0  0  0  0  0  0  0  0  0
   -1.1350   10.0090    0.6560 C   0  0  0  0  0  0  0  0  0  0  0  0
   -3.5940    9.3680    0.5120 C   0  0  0  0  0  0  0  0  0  0  0  0
    1.3040   11.4860   -1.2460 C   0  0  1  0  0  0  0  0  0  0  0  0
    2.3240   11.4750   -0.0770 C   0  0  0  0  0  0  0  0  0  0  0  0
    2.8520   12.9260    0.0690 C   0  0  0  0  0  0  0  0  0  0  0  0
    1.8870   13.7800   -0.7860 C   0  0  1  0  0  0  0  0  0  0  0  0
    0.6400   14.0090    0.1250 C   0  0  0  0  0  0  0  0  0  0  0  0
    2.4580   15.1300   -1.3320 C   0  0  2  0  0  0  0  0  0  0  0  0
    2.8680   16.1490   -0.2540 C   0  0  0  0  0  0  0  0  0  0  0  0
    1.7940   17.0970    0.1670 C   0  0  0  0  0  0  0  0  0  0  0  0
    0.6440   17.3200   -0.4950 C   0  0  0  0  0  0  0  0  0  0  0  0
    0.3720   16.6530   -1.8490 C   0  0  1  0  0  0  0  0  0  0  0  0
   -0.1720   17.7090   -2.8470 C   0  0  0  0  0  0  0  0  0  0  0  0
   -1.3920   18.4500   -2.3060 C   0  0  0  0  0  0  0  0  0  0  0  0
   -1.0660   19.1480   -0.9880 C   0  0  2  0  0  0  0  0  0  0  0  0
   -0.1240   20.1940   -1.2420 O   0  0  0  0  0  0  0  0  0  0  0  0
   -0.5000   18.1840    0.0920 C   0  0  0  0  0  0  0  0  0  0  0  0
   -1.6220   17.2370    0.5840 C   0  0  0  0  0  0  0  0  0  0  0  0
   -0.0810   19.0370    1.3200 C   0  0  0  0  0  0  0  0  0  0  0  0
    1.5700   15.8020   -2.4550 C   0  0  1  0  0  0  0  0  0  0  0  0
    2.5180   16.7280   -3.2780 C   0  0  0  0  0  0  0  0  0  0  0  0
    0.9890   14.7470   -3.4700 C   0  0  0  0  0  0  0  0  0  0  0  0
    0.5540   13.3890   -2.8870 C   0  0  0  0  0  0  0  0  0  0  0  0
    1.6480   12.8000   -1.9920 C   0  0  2  0  0  0  0  0  0  0  0  0
    2.9080   12.5390   -2.8850 C   0  0  0  0  0  0  0  0  0  0  0  0
    3.3984   10.3490   -2.6588 H   0  0  0  0  0  0  0  0  0  0  0  0
    2.3711    9.3725   -3.7623 H   0  0  0  0  0  0  0  0  0  0  0  0
    2.2387   11.1639   -3.7623 H   0  0  0  0  0  0  0  0  0  0  0  0
    1.5762    9.3492   -1.4006 H   0  0  0  0  0  0  0  0  0  0  0  0
   -0.7211   10.7757   -2.4129 H   0  0  0  0  0  0  0  0  0  0  0  0
    0.0662    9.7918   -3.7378 H   0  0  0  0  0  0  0  0  0  0  0  0
   -0.8314    7.9305   -2.9537 H   0  0  0  0  0  0  0  0  0  0  0  0
   -0.0855    8.2357   -1.3296 H   0  0  0  0  0  0  0  0  0  0  0  0
   -2.4810    7.9941   -1.9812 H   0  0  0  0  0  0  0  0  0  0  0  0
   -1.4035    9.9096    1.7181 H   0  0  0  0  0  0  0  0  0  0  0  0
   -0.2641    9.3737    0.4369 H   0  0  0  0  0  0  0  0  0  0  0  0
   -0.8878   11.0582    0.4369 H   0  0  0  0  0  0  0  0  0  0  0  0
   -3.4311    9.3946    1.5995 H   0  0  0  0  0  0  0  0  0  0  0  0
   -4.2992   10.1628    0.2273 H   0  0  0  0  0  0  0  0  0  0  0  0
   -4.0094    8.3900    0.2273 H   0  0  0  0  0  0  0  0  0  0  0  0
    0.2478   11.4927   -0.9389 H   0  0  0  0  0  0  0  0  0  0  0  0
    1.8310   11.1558    0.8531 H   0  0  0  0  0  0  0  0  0  0  0  0
    3.1471   10.7732   -0.2772 H   0  0  0  0  0  0  0  0  0  0  0  0
    2.8245   13.2452    1.1213 H   0  0  0  0  0  0  0  0  0  0  0  0
    3.8976   13.0244   -0.2582 H   0  0  0  0  0  0  0  0  0  0  0  0
    0.9423   13.9535    1.1812 H   0  0  0  0  0  0  0  0  0  0  0  0
    0.2117   15.0008   -0.0822 H   0  0  0  0  0  0  0  0  0  0  0  0
   -0.1127   13.2341   -0.0822 H   0  0  0  0  0  0  0  0  0  0  0  0
    3.3945   14.8123   -1.8136 H   0  0  0  0  0  0  0  0  0  0  0  0
    3.1962   15.5903    0.6349 H   0  0  0  0  0  0  0  0  0  0  0  0
    3.6603   16.7658   -0.7031 H   0  0  0  0  0  0  0  0  0  0  0  0
    1.9567   17.6610    1.0973 H   0  0  0  0  0  0  0  0  0  0  0  0
   -0.3946   15.8867   -1.6619 H   0  0  0  0  0  0  0  0  0  0  0  0
    0.6225   18.4412   -3.0539 H   0  0  0  0  0  0  0  0  0  0  0  0
   -0.4806   17.1786   -3.7599 H   0  0  0  0  0  0  0  0  0  0  0  0
   -1.7121   19.2021   -3.0421 H   0  0  0  0  0  0  0  0  0  0  0  0
   -2.1955   17.7203   -2.1276 H   0  0  0  0  0  0  0  0  0  0  0  0
   -2.0072   19.5506   -0.5854 H   0  0  0  0  0  0  0  0  0  0  0  0
    0.0180   20.2370   -2.2030 H   0  0  0  0  0  0  0  0  0  0  0  0
   -1.6359   17.2253    1.6839 H   0  0  0  0  0  0  0  0  0  0  0  0
   -2.5929   17.5928    0.2088 H   0  0  0  0  0  0  0  0  0  0  0  0
   -1.4343   16.2201    0.2088 H   0  0  0  0  0  0  0  0  0  0  0  0
   -0.3437   18.5023    2.2447 H   0  0  0  0  0  0  0  0  0  0  0  0
    1.0049   19.2105    1.2926 H   0  0  0  0  0  0  0  0  0  0  0  0
   -0.6074   20.0025    1.2926 H   0  0  0  0  0  0  0  0  0  0  0  0
    3.1322   17.3280   -2.5904 H   0  0  0  0  0  0  0  0  0  0  0  0
    3.1727   16.1120   -3.9120 H   0  0  0  0  0  0  0  0  0  0  0  0
    1.9175   17.3970   -3.9120 H   0  0  0  0  0  0  0  0  0  0  0  0
    0.1100   15.1988   -3.9529 H   0  0  0  0  0  0  0  0  0  0  0  0
    1.8207   14.5147   -4.1514 H   0  0  0  0  0  0  0  0  0  0  0  0
   -0.3606   13.5293   -2.2921 H   0  0  0  0  0  0  0  0  0  0  0  0
    0.3698   12.6934   -3.7190 H   0  0  0  0  0  0  0  0  0  0  0  0
    3.7820   12.3580   -2.2420 H   0  0  0  0  0  0  0  0  0  0  0  0
    2.7313   11.6584   -3.5201 H   0  0  0  0  0  0  0  0  0  0  0  0
    3.0956   13.4173   -3.5201 H   0  0  0  0  0  0  0  0  0  0  0  0
  1  2  1  0
  2  3  1  0
  3  4  1  0
  4  5  1  0
  5  6  1  0
  6  7  1  0
  7  8  1  0
  7  9  1  0
  2 10  1  0
 10 11  1  0
 11 12  1  0
 12 13  1  0
 13 14  1  1
 13 15  1  0
 15 16  1  0
 16 17  1  0
 17 18  2  0
 18 19  1  0
 19 20  1  0
 20 21  1  0
 21 22  1  0
 22 23  1  0
 22 24  1  0
 24 25  1  0
 24 26  1  0
 19 27  1  0
 27 28  1  6
 27 29  1  0
 29 30  1  0
 30 31  1  0
 31 32  1  6
  7  5  1  0
 31 10  1  0
 31 13  1  0
 27 15  1  0
 24 18  1  0
  1 33  1  0
  1 34  1  0
  1 35  1  0
  2 36  1  1
  3 37  1  0
  3 38  1  0
  4 39  1  0
  4 40  1  0
  5 41  1  6
  8 42  1  0
  8 43  1  0
  8 44  1  0
  9 45  1  0
  9 46  1  0
  9 47  1  0
 10 48  1  1
 11 49  1  0
 11 50  1  0
 12 51  1  0
 12 52  1  0
 14 53  1  0
 14 54  1  0
 14 55  1  0
 15 56  1  6
 16 57  1  0
 16 58  1  0
 17 59  1  0
 19 60  1  1
 20 61  1  0
 20 62  1  0
 21 63  1  0
 21 64  1  0
 22 65  1  1
 23 66  1  0
 25 67  1  0
 25 68  1  0
 25 69  1  0
 26 70  1  0
 26 71  1  0
 26 72  1  0
 28 73  1  0
 28 74  1  0
 28 75  1  0
 29 76  1  0
 29 77  1  0
 30 78  1  0
 30 79  1  0
 32 80  1  0
 32 81  1  0
 32 82  1  0
M  END
>  <meeko>  (11) 
{"is_sidechain": [false], "intermolecular_energy": 2.731, "internal_energy": -0.839}

$$$$
EPH_relaxed_0001_pdb2pqr_Repair_123_r2_0001_out
     RDKit          3D

 82 86  0  0  0  0  0  0  0  0999 V2000
   -1.4120    7.7760   -1.4650 C   0  0  0  0  0  0  0  0  0  0  0  0
   -1.7880    8.7170   -0.3170 C   0  0  2  0  0  0  0  0  0  0  0  0
   -3.3010    8.6970   -0.0220 C   0  0  0  0  0  0  0  0  0  0  0  0
   -4.1680    9.0710   -1.2270 C   0  0  0  0  0  0  0  0  0  0  0  0
   -5.5420    8.4800   -1.1270 C   0  0  2  0  0  0  0  0  0  0  0  0
   -5.5760    7.1160   -0.6860 O   0  0  0  0  0  0  0  0  0  0  0  0
   -6.0390    7.3620   -2.0240 C   0  0  0  0  0  0  0  0  0  0  0  0
   -5.1690    6.7700   -3.0880 C   0  0  0  0  0  0  0  0  0  0  0  0
   -7.5160    7.1830   -2.1930 C   0  0  0  0  0  0  0  0  0  0  0  0
   -1.3390   10.1370   -0.6410 C   0  0  1  0  0  0  0  0  0  0  0  0
   -0.9220   10.9350    0.6230 C   0  0  0  0  0  0  0  0  0  0  0  0
    0.2470   11.8620    0.2010 C   0  0  0  0  0  0  0  0  0  0  0  0
    0.2450   11.8140   -1.3440 C   0  0  1  0  0  0  0  0  0  0  0  0
   -0.8710   12.8160   -1.7760 C   0  0  0  0  0  0  0  0  0  0  0  0
    1.6060   12.1280   -2.0470 C   0  0  2  0  0  0  0  0  0  0  0  0
    2.1540   13.5450   -1.8040 C   0  0  0  0  0  0  0  0  0  0  0  0
    1.7250   14.5740   -2.7970 C   0  0  0  0  0  0  0  0  0  0  0  0
    1.1680   14.3200   -3.9960 C   0  0  0  0  0  0  0  0  0  0  0  0
    1.0090   12.8800   -4.5000 C   0  0  1  0  0  0  0  0  0  0  0  0
    1.4870   12.7910   -5.9730 C   0  0  0  0  0  0  0  0  0  0  0  0
    0.7930   13.8060   -6.8760 C   0  0  0  0  0  0  0  0  0  0  0  0
    1.0230   15.2290   -6.3750 C   0  0  2  0  0  0  0  0  0  0  0  0
    2.4100   15.5490   -6.5170 O   0  0  0  0  0  0  0  0  0  0  0  0
    0.5870   15.4360   -4.8970 C   0  0  0  0  0  0  0  0  0  0  0  0
   -0.9580   15.3860   -4.7990 C   0  0  0  0  0  0  0  0  0  0  0  0
    1.0020   16.8710   -4.4740 C   0  0  0  0  0  0  0  0  0  0  0  0
    1.6450   11.7490   -3.5830 C   0  0  1  0  0  0  0  0  0  0  0  0
    3.1470   11.5460   -3.9530 C   0  0  0  0  0  0  0  0  0  0  0  0
    0.9260   10.3800   -3.8800 C   0  0  0  0  0  0  0  0  0  0  0  0
   -0.3470   10.0740   -3.0680 C   0  0  0  0  0  0  0  0  0  0  0  0
   -0.1110   10.2990   -1.5720 C   0  0  2  0  0  0  0  0  0  0  0  0
    0.9920    9.2900   -1.1040 C   0  0  0  0  0  0  0  0  0  0  0  0
   -1.0335    6.8287   -1.0536 H   0  0  0  0  0  0  0  0  0  0  0  0
   -2.3002    7.5784   -2.0831 H   0  0  0  0  0  0  0  0  0  0  0  0
   -0.6322    8.2449   -2.0831 H   0  0  0  0  0  0  0  0  0  0  0  0
   -1.2710    8.3606    0.5862 H   0  0  0  0  0  0  0  0  0  0  0  0
   -3.5779    7.6835    0.3038 H   0  0  0  0  0  0  0  0  0  0  0  0
   -3.4870    9.4532    0.7549 H   0  0  0  0  0  0  0  0  0  0  0  0
   -4.2541   10.1664   -1.2778 H   0  0  0  0  0  0  0  0  0  0  0  0
   -3.6878    8.6706   -2.1321 H   0  0  0  0  0  0  0  0  0  0  0  0
   -5.9694    9.4583   -0.8620 H   0  0  0  0  0  0  0  0  0  0  0  0
   -4.3462    6.2101   -2.6194 H   0  0  0  0  0  0  0  0  0  0  0  0
   -5.7659    6.0898   -3.7133 H   0  0  0  0  0  0  0  0  0  0  0  0
   -4.7554    7.5749   -3.7133 H   0  0  0  0  0  0  0  0  0  0  0  0
   -7.9939    7.1251   -1.2039 H   0  0  0  0  0  0  0  0  0  0  0  0
   -7.9276    8.0378   -2.7496 H   0  0  0  0  0  0  0  0  0  0  0  0
   -7.7115    6.2546   -2.7496 H   0  0  0  0  0  0  0  0  0  0  0  0
   -2.2445   10.5066   -1.1444 H   0  0  0  0  0  0  0  0  0  0  0  0
   -1.7684   11.5351    0.9885 H   0  0  0  0  0  0  0  0  0  0  0  0
   -0.6163   10.2582    1.4345 H   0  0  0  0  0  0  0  0  0  0  0  0
    0.0767   12.8885    0.5578 H   0  0  0  0  0  0  0  0  0  0  0  0
    1.2088   11.5404    0.6269 H   0  0  0  0  0  0  0  0  0  0  0  0
   -1.3468   13.2432   -0.8809 H   0  0  0  0  0  0  0  0  0  0  0  0
   -0.4263   13.6238   -2.3758 H   0  0  0  0  0  0  0  0  0  0  0  0
   -1.6264   12.2872   -2.3758 H   0  0  0  0  0  0  0  0  0  0  0  0
    2.2998   11.4468   -1.5325 H   0  0  0  0  0  0  0  0  0  0  0  0
    1.8192   13.8728   -0.8088 H   0  0  0  0  0  0  0  0  0  0  0  0
    3.2473   13.4686   -1.8982 H   0  0  0  0  0  0  0  0  0  0  0  0
    1.8769   15.6292   -2.5260 H   0  0  0  0  0  0  0  0  0  0  0  0
   -0.0663   12.6555   -4.4419 H   0  0  0  0  0  0  0  0  0  0  0  0
    2.5710   12.9751   -6.0036 H   0  0  0  0  0  0  0  0  0  0  0  0
    1.2361   11.7868   -6.3452 H   0  0  0  0  0  0  0  0  0  0  0  0
    1.1946   13.7142   -7.8960 H   0  0  0  0  0  0  0  0  0  0  0  0
   -0.2878   13.6015   -6.8682 H   0  0  0  0  0  0  0  0  0  0  0  0
    0.3969   15.8984   -6.9832 H   0  0  0  0  0  0  0  0  0  0  0  0
    2.9190   14.7450   -6.3180 H   0  0  0  0  0  0  0  0  0  0  0  0
   -1.2582   15.3763   -3.7408 H   0  0  0  0  0  0  0  0  0  0  0  0
   -1.3856   16.2708   -5.2933 H   0  0  0  0  0  0  0  0  0  0  0  0
   -1.3275   14.4754   -5.2933 H   0  0  0  0  0  0  0  0  0  0  0  0
    1.0215   16.9385   -3.3762 H   0  0  0  0  0  0  0  0  0  0  0  0
    2.0021   17.0961   -4.8730 H   0  0  0  0  0  0  0  0  0  0  0  0
    0.2765   17.5951   -4.8730 H   0  0  0  0  0  0  0  0  0  0  0  0
    3.7437   11.4653   -3.0325 H   0  0  0  0  0  0  0  0  0  0  0  0
    3.2578   10.6247   -4.5437 H   0  0  0  0  0  0  0  0  0  0  0  0
    3.4984   12.4048   -4.5437 H   0  0  0  0  0  0  0  0  0  0  0  0
    0.6512   10.3725   -4.9451 H   0  0  0  0  0  0  0  0  0  0  0  0
    1.6489    9.6051   -3.5852 H   0  0  0  0  0  0  0  0  0  0  0  0
   -1.1579   10.7351   -3.4077 H   0  0  0  0  0  0  0  0  0  0  0  0
   -0.6180    9.0196   -3.2253 H   0  0  0  0  0  0  0  0  0  0  0  0
    1.0216    9.2630   -0.0047 H   0  0  0  0  0  0  0  0  0  0  0  0
    0.7583    8.2866   -1.4893 H   0  0  0  0  0  0  0  0  0  0  0  0
    1.9707    9.6119   -1.4893 H   0  0  0  0  0  0  0  0  0  0  0  0
  1  2  1  0
  2  3  1  0
  3  4  1  0
  4  5  1  0
  5  6  1  0
  6  7  1  0
  7  8  1  0
  7  9  1  0
  2 10  1  0
 10 11  1  0
 11 12  1  0
 12 13  1  0
 13 14  1  6
 13 15  1  0
 15 16  1  0
 16 17  1  0
 17 18  2  0
 18 19  1  0
 19 20  1  0
 20 21  1  0
 21 22  1  0
 22 23  1  0
 22 24  1  0
 24 25  1  0
 24 26  1  0
 19 27  1  0
 27 28  1  6
 27 29  1  0
 29 30  1  0
 30 31  1  0
 31 32  1  1
  7  5  1  0
 31 10  1  0
 31 13  1  0
 27 15  1  0
 24 18  1  0
  1 33  1  0
  1 34  1  0
  1 35  1  0
  2 36  1  1
  3 37  1  0
  3 38  1  0
  4 39  1  0
  4 40  1  0
  5 41  1  1
  8 42  1  0
  8 43  1  0
  8 44  1  0
  9 45  1  0
  9 46  1  0
  9 47  1  0
 10 48  1  6
 11 49  1  0
 11 50  1  0
 12 51  1  0
 12 52  1  0
 14 53  1  0
 14 54  1  0
 14 55  1  0
 15 56  1  1
 16 57  1  0
 16 58  1  0
 17 59  1  0
 19 60  1  6
 20 61  1  0
 20 62  1  0
 21 63  1  0
 21 64  1  0
 22 65  1  6
 23 66  1  0
 25 67  1  0
 25 68  1  0
 25 69  1  0
 26 70  1  0
 26 71  1  0
 26 72  1  0
 28 73  1  0
 28 74  1  0
 28 75  1  0
 29 76  1  0
 29 77  1  0
 30 78  1  0
 30 79  1  0
 32 80  1  0
 32 81  1  0
 32 82  1  0
M  END
>  <meeko>  (12) 
{"is_sidechain": [false], "intermolecular_energy": 2.731, "internal_energy": -0.839}

$$$$
EPH_relaxed_0001_pdb2pqr_Repair_123_r2_0001_out
     RDKit          3D

 82 86  0  0  0  0  0  0  0  0999 V2000
    2.0510   19.5870   -0.6430 C   0  0  0  0  0  0  0  0  0  0  0  0
    2.3290   18.3920    0.2730 C   0  0  2  0  0  0  0  0  0  0  0  0
    3.7910   17.9110    0.1720 C   0  0  0  0  0  0  0  0  0  0  0  0
    4.7460   18.6430    1.1190 C   0  0  0  0  0  0  0  0  0  0  0  0
    4.1430   18.8310    2.4780 C   0  0  2  0  0  0  0  0  0  0  0  0
    3.8690   20.1950    2.8280 O   0  0  0  0  0  0  0  0  0  0  0  0
    4.8590   19.5230    3.6230 C   0  0  0  0  0  0  0  0  0  0  0  0
    6.2430   20.0700    3.4610 C   0  0  0  0  0  0  0  0  0  0  0  0
    4.4150   19.2360    5.0230 C   0  0  0  0  0  0  0  0  0  0  0  0
    1.3800   17.2480   -0.0640 C   0  0  1  0  0  0  0  0  0  0  0  0
    0.1580   17.7110   -0.9010 C   0  0  0  0  0  0  0  0  0  0  0  0
   -0.1840   16.5520   -1.8710 C   0  0  0  0  0  0  0  0  0  0  0  0
    0.6260   15.3470   -1.3410 C   0  0  1  0  0  0  0  0  0  0  0  0
   -0.2250   14.7790   -0.1620 C   0  0  0  0  0  0  0  0  0  0  0  0
    0.9790   14.2380   -2.3850 C   0  0  2  0  0  0  0  0  0  0  0  0
   -0.2320   13.5200   -3.0080 C   0  0  0  0  0  0  0  0  0  0  0  0
   -0.6900   12.2970   -2.2830 C   0  0  0  0  0  0  0  0  0  0  0  0
    0.0130   11.6340   -1.3460 C   0  0  0  0  0  0  0  0  0  0  0  0
    1.4490   12.0470   -0.9990 C   0  0  1  0  0  0  0  0  0  0  0  0
    2.3520   10.7870   -0.9440 C   0  0  0  0  0  0  0  0  0  0  0  0
    1.8080    9.7180   -0.0010 C   0  0  0  0  0  0  0  0  0  0  0  0
    0.4010    9.2920   -0.4130 C   0  0  2  0  0  0  0  0  0  0  0  0
    0.4750    8.6190   -1.6740 O   0  0  0  0  0  0  0  0  0  0  0  0
   -0.5960   10.4800   -0.5120 C   0  0  0  0  0  0  0  0  0  0  0  0
   -0.9060   11.0180    0.9070 C   0  0  0  0  0  0  0  0  0  0  0  0
   -1.9360    9.9330   -1.0720 C   0  0  0  0  0  0  0  0  0  0  0  0
    2.0720   13.2060   -1.8910 C   0  0  1  0  0  0  0  0  0  0  0  0
    2.7230   12.5990   -3.1720 C   0  0  0  0  0  0  0  0  0  0  0  0
    3.2340   13.9030   -1.0900 C   0  0  0  0  0  0  0  0  0  0  0  0
    2.8380   15.0700   -0.1650 C   0  0  0  0  0  0  0  0  0  0  0  0
    1.9480   16.0760   -0.9030 C   0  0  2  0  0  0  0  0  0  0  0  0
    2.7850   16.6810   -2.0810 C   0  0  0  0  0  0  0  0  0  0  0  0
    1.8438   20.4775   -0.0313 H   0  0  0  0  0  0  0  0  0  0  0  0
    2.9295   19.7745   -1.2779 H   0  0  0  0  0  0  0  0  0  0  0  0
    1.1799   19.3675   -1.2779 H   0  0  0  0  0  0  0  0  0  0  0  0
    2.1609   18.7221    1.3087 H   0  0  0  0  0  0  0  0  0  0  0  0
    3.8208   16.8375    0.4101 H   0  0  0  0  0  0  0  0  0  0  0  0
    4.1293   18.1228   -0.8530 H   0  0  0  0  0  0  0  0  0  0  0  0
    5.6705   18.0552    1.2174 H   0  0  0  0  0  0  0  0  0  0  0  0
    4.9539   19.6368    0.6956 H   0  0  0  0  0  0  0  0  0  0  0  0
    3.6265   17.8623    2.4087 H   0  0  0  0  0  0  0  0  0  0  0  0
    6.6864   20.2452    4.4523 H   0  0  0  0  0  0  0  0  0  0  0  0
    6.8599   19.3481    2.9058 H   0  0  0  0  0  0  0  0  0  0  0  0
    6.1997   21.0186    2.9058 H   0  0  0  0  0  0  0  0  0  0  0  0
    5.1210   19.6924    5.7324 H   0  0  0  0  0  0  0  0  0  0  0  0
    3.4112   19.6566    5.1828 H   0  0  0  0  0  0  0  0  0  0  0  0
    4.3864   18.1481    5.1828 H   0  0  0  0  0  0  0  0  0  0  0  0
    1.1413   16.9022    0.9526 H   0  0  0  0  0  0  0  0  0  0  0  0
   -0.6972   17.9173   -0.2407 H   0  0  0  0  0  0  0  0  0  0  0  0
    0.3847   18.6348   -1.4535 H   0  0  0  0  0  0  0  0  0  0  0  0
   -1.2620   16.3342   -1.8508 H   0  0  0  0  0  0  0  0  0  0  0  0
    0.0647   16.7948   -2.9146 H   0  0  0  0  0  0  0  0  0  0  0  0
    0.2266   15.0804    0.7947 H   0  0  0  0  0  0  0  0  0  0  0  0
   -1.2492   15.1752   -0.2249 H   0  0  0  0  0  0  0  0  0  0  0  0
   -0.2520   13.6811   -0.2249 H   0  0  0  0  0  0  0  0  0  0  0  0
    1.4350   14.8183   -3.2007 H   0  0  0  0  0  0  0  0  0  0  0  0
   -1.0705   14.2314   -3.0383 H   0  0  0  0  0  0  0  0  0  0  0  0
    0.0935   13.1807   -4.0025 H   0  0  0  0  0  0  0  0  0  0  0  0
   -1.6861   11.9050   -2.5363 H   0  0  0  0  0  0  0  0  0  0  0  0
    1.3988   12.5134   -0.0040 H   0  0  0  0  0  0  0  0  0  0  0  0
    2.4248   10.3609   -1.9555 H   0  0  0  0  0  0  0  0  0  0  0  0
    3.3363   11.0980   -0.5639 H   0  0  0  0  0  0  0  0  0  0  0  0
    2.4722    8.8416   -0.0289 H   0  0  0  0  0  0  0  0  0  0  0  0
    1.7649   10.1356    1.0157 H   0  0  0  0  0  0  0  0  0  0  0  0
    0.0151    8.6251    0.3721 H   0  0  0  0  0  0  0  0  0  0  0  0
    0.1410    9.2300   -2.3530 H   0  0  0  0  0  0  0  0  0  0  0  0
   -0.5050   10.3221    1.6587 H   0  0  0  0  0  0  0  0  0  0  0  0
   -0.4384   12.0054    1.0350 H   0  0  0  0  0  0  0  0  0  0  0  0
   -1.9948   11.1086    1.0350 H   0  0  0  0  0  0  0  0  0  0  0  0
   -2.5991    9.6623   -0.2371 H   0  0  0  0  0  0  0  0  0  0  0  0
   -2.4188   10.7060   -1.6879 H   0  0  0  0  0  0  0  0  0  0  0  0
   -1.7399    9.0429   -1.6879 H   0  0  0  0  0  0  0  0  0  0  0  0
    3.4989   11.8755   -2.8813 H   0  0  0  0  0  0  0  0  0  0  0  0
    1.9521   12.0898   -3.7690 H   0  0  0  0  0  0  0  0  0  0  0  0
    3.1771   13.4036   -3.7690 H   0  0  0  0  0  0  0  0  0  0  0  0
    3.7169   13.1347   -0.4682 H   0  0  0  0  0  0  0  0  0  0  0  0
    3.8833   14.3511   -1.8566 H   0  0  0  0  0  0  0  0  0  0  0  0
    2.2897   14.6723    0.7017 H   0  0  0  0  0  0  0  0  0  0  0  0
    3.7533   15.5849    0.1622 H   0  0  0  0  0  0  0  0  0  0  0  0
    3.6129   17.2794   -1.6730 H   0  0  0  0  0  0  0  0  0  0  0  0
    3.1910   15.8663   -2.6986 H   0  0  0  0  0  0  0  0  0  0  0  0
    2.1388   17.3221   -2.6986 H   0  0  0  0  0  0  0  0  0  0  0  0
  1  2  1  0
  2  3  1  0
  3  4  1  0
  4  5  1  0
  5  6  1  0
  6  7  1  0
  7  8  1  0
  7  9  1  0
  2 10  1  0
 10 11  1  0
 11 12  1  0
 12 13  1  0
 13 14  1  1
 13 15  1  0
 15 16  1  0
 16 17  1  0
 17 18  2  0
 18 19  1  0
 19 20  1  0
 20 21  1  0
 21 22  1  0
 22 23  1  0
 22 24  1  0
 24 25  1  0
 24 26  1  0
 19 27  1  0
 27 28  1  6
 27 29  1  0
 29 30  1  0
 30 31  1  0
 31 32  1  6
  7  5  1  0
 31 10  1  0
 31 13  1  0
 27 15  1  0
 24 18  1  0
  1 33  1  0
  1 34  1  0
  1 35  1  0
  2 36  1  1
  3 37  1  0
  3 38  1  0
  4 39  1  0
  4 40  1  0
  5 41  1  1
  8 42  1  0
  8 43  1  0
  8 44  1  0
  9 45  1  0
  9 46  1  0
  9 47  1  0
 10 48  1  1
 11 49  1  0
 11 50  1  0
 12 51  1  0
 12 52  1  0
 14 53  1  0
 14 54  1  0
 14 55  1  0
 15 56  1  6
 16 57  1  0
 16 58  1  0
 17 59  1  0
 19 60  1  1
 20 61  1  0
 20 62  1  0
 21 63  1  0
 21 64  1  0
 22 65  1  1
 23 66  1  0
 25 67  1  0
 25 68  1  0
 25 69  1  0
 26 70  1  0
 26 71  1  0
 26 72  1  0
 28 73  1  0
 28 74  1  0
 28 75  1  0
 29 76  1  0
 29 77  1  0
 30 78  1  0
 30 79  1  0
 32 80  1  0
 32 81  1  0
 32 82  1  0
M  END
>  <meeko>  (13) 
{"is_sidechain": [false], "intermolecular_energy": 2.731, "internal_energy": -0.839}

$$$$
EPH_relaxed_0001_pdb2pqr_Repair_123_r2_0001_out
     RDKit          3D

 82 86  0  0  0  0  0  0  0  0999 V2000
    2.7080   16.1570   -8.0280 C   0  0  0  0  0  0  0  0  0  0  0  0
    2.1210   14.7820   -7.6980 C   0  0  2  0  0  0  0  0  0  0  0  0
    0.9790   14.3920   -8.6580 C   0  0  0  0  0  0  0  0  0  0  0  0
    0.5110   15.5410   -9.5560 C   0  0  0  0  0  0  0  0  0  0  0  0
    0.4770   15.1380  -10.9990 C   0  0  2  0  0  0  0  0  0  0  0  0
    0.9390   13.8060  -11.2600 O   0  0  0  0  0  0  0  0  0  0  0  0
    1.7220   14.8710  -11.8230 C   0  0  0  0  0  0  0  0  0  0  0  0
    3.0910   14.9970  -11.2310 C   0  0  0  0  0  0  0  0  0  0  0  0
    1.6280   14.9660  -13.3140 C   0  0  0  0  0  0  0  0  0  0  0  0
    1.6210   14.7620   -6.2590 C   0  0  1  0  0  0  0  0  0  0  0  0
    0.2980   15.5520   -6.0750 C   0  0  0  0  0  0  0  0  0  0  0  0
   -0.5250   14.8000   -4.9970 C   0  0  0  0  0  0  0  0  0  0  0  0
    0.4770   13.8070   -4.3630 C   0  0  1  0  0  0  0  0  0  0  0  0
    1.2860   14.6560   -3.3330 C   0  0  0  0  0  0  0  0  0  0  0  0
   -0.1400   12.5320   -3.7020 C   0  0  2  0  0  0  0  0  0  0  0  0
   -1.0730   12.8010   -2.5080 C   0  0  0  0  0  0  0  0  0  0  0  0
   -0.4070   12.8290   -1.1720 C   0  0  0  0  0  0  0  0  0  0  0  0
    0.8290   12.3680   -0.9040 C   0  0  0  0  0  0  0  0  0  0  0  0
    1.6550   11.6560   -1.9830 C   0  0  1  0  0  0  0  0  0  0  0  0
    2.2750   10.3630   -1.3920 C   0  0  0  0  0  0  0  0  0  0  0  0
    3.0780   10.6270   -0.1220 C   0  0  0  0  0  0  0  0  0  0  0  0
    2.2070   11.2820    0.9470 C   0  0  2  0  0  0  0  0  0  0  0  0
    1.2120   10.3440    1.3690 O   0  0  0  0  0  0  0  0  0  0  0  0
    1.5210   12.5900    0.4630 C   0  0  0  0  0  0  0  0  0  0  0  0
    2.5850   13.7030    0.2940 C   0  0  0  0  0  0  0  0  0  0  0  0
    0.5640   13.0710    1.5860 C   0  0  0  0  0  0  0  0  0  0  0  0
    0.9150   11.4010   -3.3670 C   0  0  1  0  0  0  0  0  0  0  0  0
    0.1250   10.0580   -3.3080 C   0  0  0  0  0  0  0  0  0  0  0  0
    1.9930   11.2330   -4.5020 C   0  0  0  0  0  0  0  0  0  0  0  0
    2.4740   12.5200   -5.2000 C   0  0  0  0  0  0  0  0  0  0  0  0
    1.2870   13.3810   -5.6410 C   0  0  2  0  0  0  0  0  0  0  0  0
    0.4670   12.5610   -6.6940 C   0  0  0  0  0  0  0  0  0  0  0  0
    2.9363   16.6919   -7.0943 H   0  0  0  0  0  0  0  0  0  0  0  0
    3.6307   16.0309   -8.6134 H   0  0  0  0  0  0  0  0  0  0  0  0
    1.9787   16.7361   -8.6134 H   0  0  0  0  0  0  0  0  0  0  0  0
    2.9244   14.0411   -7.8228 H   0  0  0  0  0  0  0  0  0  0  0  0
    1.3299   13.5704   -9.2997 H   0  0  0  0  0  0  0  0  0  0  0  0
    0.1206   14.1003   -8.0351 H   0  0  0  0  0  0  0  0  0  0  0  0
   -0.4997   15.8459   -9.2471 H   0  0  0  0  0  0  0  0  0  0  0  0
    1.2235   16.3722   -9.4487 H   0  0  0  0  0  0  0  0  0  0  0  0
   -0.4049   15.7705  -11.1787 H   0  0  0  0  0  0  0  0  0  0  0  0
    3.0179   14.9903  -10.1335 H   0  0  0  0  0  0  0  0  0  0  0  0
    3.7129   14.1523  -11.5622 H   0  0  0  0  0  0  0  0  0  0  0  0
    3.5483   15.9410  -11.5622 H   0  0  0  0  0  0  0  0  0  0  0  0
    0.8784   15.7235  -13.5866 H   0  0  0  0  0  0  0  0  0  0  0  0
    2.6067   15.2539  -13.7255 H   0  0  0  0  0  0  0  0  0  0  0  0
    1.3298   13.9904  -13.7255 H   0  0  0  0  0  0  0  0  0  0  0  0
    2.4955   15.1983   -5.7542 H   0  0  0  0  0  0  0  0  0  0  0  0
    0.5125   16.5778   -5.7407 H   0  0  0  0  0  0  0  0  0  0  0  0
   -0.2579   15.6181   -7.0219 H   0  0  0  0  0  0  0  0  0  0  0  0
   -0.9074   15.5016   -4.2410 H   0  0  0  0  0  0  0  0  0  0  0  0
   -1.4032   14.2920   -5.4220 H   0  0  0  0  0  0  0  0  0  0  0  0
    1.0039   14.3600   -2.3118 H   0  0  0  0  0  0  0  0  0  0  0  0
    2.3623   14.4836   -3.4806 H   0  0  0  0  0  0  0  0  0  0  0  0
    1.0619   15.7228   -3.4806 H   0  0  0  0  0  0  0  0  0  0  0  0
   -0.7852   12.1410   -4.5025 H   0  0  0  0  0  0  0  0  0  0  0  0
   -1.5564   13.7761   -2.6673 H   0  0  0  0  0  0  0  0  0  0  0  0
   -1.7797   11.9586   -2.4782 H   0  0  0  0  0  0  0  0  0  0  0  0
   -0.9745   13.2632   -0.3357 H   0  0  0  0  0  0  0  0  0  0  0  0
    2.4541   12.3570   -2.2660 H   0  0  0  0  0  0  0  0  0  0  0  0
    1.4636    9.6587   -1.1562 H   0  0  0  0  0  0  0  0  0  0  0  0
    2.9642    9.9496   -2.1430 H   0  0  0  0  0  0  0  0  0  0  0  0
    3.4653    9.6726    0.2641 H   0  0  0  0  0  0  0  0  0  0  0  0
    3.9070   11.3078   -0.3655 H   0  0  0  0  0  0  0  0  0  0  0  0
    2.8659   11.5648    1.7812 H   0  0  0  0  0  0  0  0  0  0  0  0
    0.7310   10.7410    2.1150 H   0  0  0  0  0  0  0  0  0  0  0  0
    2.9150   14.0482    1.2849 H   0  0  0  0  0  0  0  0  0  0  0  0
    3.4470   13.3049   -0.2615 H   0  0  0  0  0  0  0  0  0  0  0  0
    2.1486   14.5462   -0.2615 H   0  0  0  0  0  0  0  0  0  0  0  0
    1.0084   12.8476    2.5671 H   0  0  0  0  0  0  0  0  0  0  0  0
    0.4060   14.1556    1.4934 H   0  0  0  0  0  0  0  0  0  0  0  0
   -0.4007   12.5507    1.4934 H   0  0  0  0  0  0  0  0  0  0  0  0
   -0.0409    9.7760   -2.2578 H   0  0  0  0  0  0  0  0  0  0  0  0
   -0.8449   10.1806   -3.8123 H   0  0  0  0  0  0  0  0  0  0  0  0
    0.7034    9.2699   -3.8123 H   0  0  0  0  0  0  0  0  0  0  0  0
    2.8734   10.7478   -4.0555 H   0  0  0  0  0  0  0  0  0  0  0  0
    1.4936   10.6485   -5.2888 H   0  0  0  0  0  0  0  0  0  0  0  0
    3.0970   13.0971   -4.5009 H   0  0  0  0  0  0  0  0  0  0  0  0
    3.0541   12.2395   -6.0915 H   0  0  0  0  0  0  0  0  0  0  0  0
   -0.2179   11.8761   -6.1727 H   0  0  0  0  0  0  0  0  0  0  0  0
   -0.1135   13.2506   -7.3244 H   0  0  0  0  0  0  0  0  0  0  0  0
    1.1566   11.9805   -7.3244 H   0  0  0  0  0  0  0  0  0  0  0  0
  1  2  1  0
  2  3  1  0
  3  4  1  0
  4  5  1  0
  5  6  1  0
  6  7  1  0
  7  8  1  0
  7  9  1  0
  2 10  1  0
 10 11  1  0
 11 12  1  0
 12 13  1  0
 13 14  1  1
 13 15  1  0
 15 16  1  0
 16 17  1  0
 17 18  2  0
 18 19  1  0
 19 20  1  0
 20 21  1  0
 21 22  1  0
 22 23  1  0
 22 24  1  0
 24 25  1  0
 24 26  1  0
 19 27  1  0
 27 28  1  1
 27 29  1  0
 29 30  1  0
 30 31  1  0
 31 32  1  6
  7  5  1  0
 31 10  1  0
 31 13  1  0
 27 15  1  0
 24 18  1  0
  1 33  1  0
  1 34  1  0
  1 35  1  0
  2 36  1  1
  3 37  1  0
  3 38  1  0
  4 39  1  0
  4 40  1  0
  5 41  1  6
  8 42  1  0
  8 43  1  0
  8 44  1  0
  9 45  1  0
  9 46  1  0
  9 47  1  0
 10 48  1  1
 11 49  1  0
 11 50  1  0
 12 51  1  0
 12 52  1  0
 14 53  1  0
 14 54  1  0
 14 55  1  0
 15 56  1  6
 16 57  1  0
 16 58  1  0
 17 59  1  0
 19 60  1  6
 20 61  1  0
 20 62  1  0
 21 63  1  0
 21 64  1  0
 22 65  1  1
 23 66  1  0
 25 67  1  0
 25 68  1  0
 25 69  1  0
 26 70  1  0
 26 71  1  0
 26 72  1  0
 28 73  1  0
 28 74  1  0
 28 75  1  0
 29 76  1  0
 29 77  1  0
 30 78  1  0
 30 79  1  0
 32 80  1  0
 32 81  1  0
 32 82  1  0
M  END
>  <meeko>  (14) 
{"is_sidechain": [false], "intermolecular_energy": 2.731, "internal_energy": -0.839}

$$$$
EPH_relaxed_0001_pdb2pqr_Repair_123_r2_0001_out
     RDKit          3D

 82 86  0  0  0  0  0  0  0  0999 V2000
   -4.7950    7.0720   -3.2360 C   0  0  0  0  0  0  0  0  0  0  0  0
   -4.5440    7.2160   -1.7330 C   0  0  2  0  0  0  0  0  0  0  0  0
   -5.8450    7.0950   -0.9130 C   0  0  0  0  0  0  0  0  0  0  0  0
   -6.8450    6.0900   -1.4910 C   0  0  0  0  0  0  0  0  0  0  0  0
   -8.0600    6.7720   -2.0420 C   0  0  2  0  0  0  0  0  0  0  0  0
   -8.1930    8.1510   -1.6720 O   0  0  0  0  0  0  0  0  0  0  0  0
   -9.2090    7.2620   -1.1800 C   0  0  0  0  0  0  0  0  0  0  0  0
   -9.1980    7.0890    0.3060 C   0  0  0  0  0  0  0  0  0  0  0  0
  -10.5480    7.4640   -1.8190 C   0  0  0  0  0  0  0  0  0  0  0  0
   -3.8680    8.5510   -1.4440 C   0  0  1  0  0  0  0  0  0  0  0  0
   -4.4880    9.2830   -0.2230 C   0  0  0  0  0  0  0  0  0  0  0  0
   -3.3280   10.0220    0.4920 C   0  0  0  0  0  0  0  0  0  0  0  0
   -2.1540    9.9690   -0.5130 C   0  0  1  0  0  0  0  0  0  0  0  0
   -2.4360   11.1250   -1.5230 C   0  0  0  0  0  0  0  0  0  0  0  0
   -0.7180   10.0730    0.0960 C   0  0  2  0  0  0  0  0  0  0  0  0
   -0.4130   11.3930    0.8260 C   0  0  0  0  0  0  0  0  0  0  0  0
    0.1750   12.4700   -0.0240 C   0  0  0  0  0  0  0  0  0  0  0  0
    0.7100   12.2970   -1.2470 C   0  0  0  0  0  0  0  0  0  0  0  0
    0.8500   10.8960   -1.8550 C   0  0  1  0  0  0  0  0  0  0  0  0
    2.2710   10.7310   -2.4540 C   0  0  0  0  0  0  0  0  0  0  0  0
    2.6180   11.8350   -3.4480 C   0  0  0  0  0  0  0  0  0  0  0  0
    2.5240   13.2090   -2.7910 C   0  0  2  0  0  0  0  0  0  0  0  0
    3.5500   13.3170   -1.7990 O   0  0  0  0  0  0  0  0  0  0  0  0
    1.1390   13.4850   -2.1430 C   0  0  0  0  0  0  0  0  0  0  0  0
    0.0730   13.6680   -3.2520 C   0  0  0  0  0  0  0  0  0  0  0  0
    1.2240   14.8430   -1.3950 C   0  0  0  0  0  0  0  0  0  0  0  0
    0.4420    9.6860   -0.9080 C   0  0  1  0  0  0  0  0  0  0  0  0
    1.6620    9.2590   -0.0360 C   0  0  0  0  0  0  0  0  0  0  0  0
    0.0740    8.4390   -1.7960 C   0  0  0  0  0  0  0  0  0  0  0  0
   -1.3890    8.3310   -2.2680 C   0  0  0  0  0  0  0  0  0  0  0  0
   -2.3580    8.5240   -1.0980 C   0  0  2  0  0  0  0  0  0  0  0  0
   -2.1130    7.3620   -0.0760 C   0  0  0  0  0  0  0  0  0  0  0  0
   -5.7385    6.5307   -3.4000 H   0  0  0  0  0  0  0  0  0  0  0  0
   -4.8604    8.0699   -3.6941 H   0  0  0  0  0  0  0  0  0  0  0  0
   -3.9665    6.5118   -3.6941 H   0  0  0  0  0  0  0  0  0  0  0  0
   -3.8831    6.3915   -1.4273 H   0  0  0  0  0  0  0  0  0  0  0  0
   -5.5842    6.7778    0.1075 H   0  0  0  0  0  0  0  0  0  0  0  0
   -6.3315    8.0813   -0.9342 H   0  0  0  0  0  0  0  0  0  0  0  0
   -6.3563    5.5250   -2.2984 H   0  0  0  0  0  0  0  0  0  0  0  0
   -7.1659    5.4202   -0.6796 H   0  0  0  0  0  0  0  0  0  0  0  0
   -8.0306    6.1446   -2.9451 H   0  0  0  0  0  0  0  0  0  0  0  0
   -9.2607    8.0746    0.7904 H   0  0  0  0  0  0  0  0  0  0  0  0
  -10.0590    6.4756    0.6101 H   0  0  0  0  0  0  0  0  0  0  0  0
   -8.2663    6.5896    0.6101 H   0  0  0  0  0  0  0  0  0  0  0  0
  -11.3135    7.5795   -1.0376 H   0  0  0  0  0  0  0  0  0  0  0  0
  -10.5231    8.3686   -2.4444 H   0  0  0  0  0  0  0  0  0  0  0  0
  -10.7911    6.5924   -2.4444 H   0  0  0  0  0  0  0  0  0  0  0  0
   -4.0236    9.0492   -2.4123 H   0  0  0  0  0  0  0  0  0  0  0  0
   -5.2467   10.0049   -0.5594 H   0  0  0  0  0  0  0  0  0  0  0  0
   -4.9806    8.5712    0.4558 H   0  0  0  0  0  0  0  0  0  0  0  0
   -3.6066   11.0637    0.7092 H   0  0  0  0  0  0  0  0  0  0  0  0
   -3.0719    9.5613    1.4575 H   0  0  0  0  0  0  0  0  0  0  0  0
   -2.6613   12.0486   -0.9696 H   0  0  0  0  0  0  0  0  0  0  0  0
   -1.5502   11.2834   -2.1556 H   0  0  0  0  0  0  0  0  0  0  0  0
   -3.2953   10.8577   -2.1556 H   0  0  0  0  0  0  0  0  0  0  0  0
   -0.7361    9.2975    0.8759 H   0  0  0  0  0  0  0  0  0  0  0  0
   -1.3541   11.7715    1.2516 H   0  0  0  0  0  0  0  0  0  0  0  0
    0.3478   11.1534    1.5835 H   0  0  0  0  0  0  0  0  0  0  0  0
    0.1707   13.4917    0.3836 H   0  0  0  0  0  0  0  0  0  0  0  0
    0.0986   10.8352   -2.6561 H   0  0  0  0  0  0  0  0  0  0  0  0
    3.0040   10.7515   -1.6340 H   0  0  0  0  0  0  0  0  0  0  0  0
    2.2963    9.7738   -2.9954 H   0  0  0  0  0  0  0  0  0  0  0  0
    3.6436   11.6804   -3.8143 H   0  0  0  0  0  0  0  0  0  0  0  0
    1.9018   11.7947   -4.2820 H   0  0  0  0  0  0  0  0  0  0  0  0
    2.6554   13.9623   -3.5818 H   0  0  0  0  0  0  0  0  0  0  0  0
    3.1330   13.6270   -0.9770 H   0  0  0  0  0  0  0  0  0  0  0  0
   -0.9111   13.8369   -2.7904 H   0  0  0  0  0  0  0  0  0  0  0  0
    0.3385   14.5337   -3.8765 H   0  0  0  0  0  0  0  0  0  0  0  0
    0.0346   12.7633   -3.8765 H   0  0  0  0  0  0  0  0  0  0  0  0
    1.2129   14.6651   -0.3095 H   0  0  0  0  0  0  0  0  0  0  0  0
    2.1561   15.3569   -1.6728 H   0  0  0  0  0  0  0  0  0  0  0  0
    0.3633   15.4691   -1.6728 H   0  0  0  0  0  0  0  0  0  0  0  0
    1.4015    9.3502    1.0288 H   0  0  0  0  0  0  0  0  0  0  0  0
    1.9259    8.2151   -0.2608 H   0  0  0  0  0  0  0  0  0  0  0  0
    2.5193    9.9105   -0.2608 H   0  0  0  0  0  0  0  0  0  0  0  0
    0.7116    8.4683   -2.6919 H   0  0  0  0  0  0  0  0  0  0  0  0
    0.2326    7.5656   -1.1464 H   0  0  0  0  0  0  0  0  0  0  0  0
   -1.5808    9.1052   -3.0256 H   0  0  0  0  0  0  0  0  0  0  0  0
   -1.5474    7.3289   -2.6930 H   0  0  0  0  0  0  0  0  0  0  0  0
   -2.1952    7.7520    0.9492 H   0  0  0  0  0  0  0  0  0  0  0  0
   -2.8647    6.5738   -0.2299 H   0  0  0  0  0  0  0  0  0  0  0  0
   -1.1071    6.9444   -0.2299 H   0  0  0  0  0  0  0  0  0  0  0  0
  1  2  1  0
  2  3  1  0
  3  4  1  0
  4  5  1  0
  5  6  1  0
  6  7  1  0
  7  8  1  0
  7  9  1  0
  2 10  1  0
 10 11  1  0
 11 12  1  0
 12 13  1  0
 13 14  1  6
 13 15  1  0
 15 16  1  0
 16 17  1  0
 17 18  2  0
 18 19  1  0
 19 20  1  0
 20 21  1  0
 21 22  1  0
 22 23  1  0
 22 24  1  0
 24 25  1  0
 24 26  1  0
 19 27  1  0
 27 28  1  1
 27 29  1  0
 29 30  1  0
 30 31  1  0
 31 32  1  1
  7  5  1  0
 31 10  1  0
 31 13  1  0
 27 15  1  0
 24 18  1  0
  1 33  1  0
  1 34  1  0
  1 35  1  0
  2 36  1  1
  3 37  1  0
  3 38  1  0
  4 39  1  0
  4 40  1  0
  5 41  1  6
  8 42  1  0
  8 43  1  0
  8 44  1  0
  9 45  1  0
  9 46  1  0
  9 47  1  0
 10 48  1  6
 11 49  1  0
 11 50  1  0
 12 51  1  0
 12 52  1  0
 14 53  1  0
 14 54  1  0
 14 55  1  0
 15 56  1  1
 16 57  1  0
 16 58  1  0
 17 59  1  0
 19 60  1  6
 20 61  1  0
 20 62  1  0
 21 63  1  0
 21 64  1  0
 22 65  1  6
 23 66  1  0
 25 67  1  0
 25 68  1  0
 25 69  1  0
 26 70  1  0
 26 71  1  0
 26 72  1  0
 28 73  1  0
 28 74  1  0
 28 75  1  0
 29 76  1  0
 29 77  1  0
 30 78  1  0
 30 79  1  0
 32 80  1  0
 32 81  1  0
 32 82  1  0
M  END
>  <meeko>  (15) 
{"is_sidechain": [false], "intermolecular_energy": 2.731, "internal_energy": -0.839}

$$$$
EPH_relaxed_0001_pdb2pqr_Repair_123_r2_0001_out
     RDKit          3D

 82 86  0  0  0  0  0  0  0  0999 V2000
   -0.2910   19.7380   -0.4100 C   0  0  0  0  0  0  0  0  0  0  0  0
    0.7350   19.0340    0.4830 C   0  0  2  0  0  0  0  0  0  0  0  0
    2.1840   19.3380    0.0540 C   0  0  0  0  0  0  0  0  0  0  0  0
    2.9570   20.1940    1.0620 C   0  0  0  0  0  0  0  0  0  0  0  0
    3.3370   19.4080    2.2810 C   0  0  2  0  0  0  0  0  0  0  0  0
    3.8520   20.1940    3.3630 O   0  0  0  0  0  0  0  0  0  0  0  0
    4.7660   19.2580    2.7680 C   0  0  0  0  0  0  0  0  0  0  0  0
    5.9080   19.8990    2.0440 C   0  0  0  0  0  0  0  0  0  0  0  0
    5.1020   18.0980    3.6520 C   0  0  0  0  0  0  0  0  0  0  0  0
    0.4920   17.5290    0.4650 C   0  0  1  0  0  0  0  0  0  0  0  0
   -0.9310   17.1480    0.9530 C   0  0  0  0  0  0  0  0  0  0  0  0
   -1.3730   15.9140    0.1250 C   0  0  0  0  0  0  0  0  0  0  0  0
   -0.0790   15.4260   -0.5680 C   0  0  1  0  0  0  0  0  0  0  0  0
    0.6660   14.5880    0.5170 C   0  0  0  0  0  0  0  0  0  0  0  0
   -0.2680   14.6180   -1.8930 C   0  0  2  0  0  0  0  0  0  0  0  0
   -1.0330   13.2910   -1.7440 C   0  0  0  0  0  0  0  0  0  0  0  0
   -0.1850   12.0940   -1.4650 C   0  0  0  0  0  0  0  0  0  0  0  0
    1.1500   12.0280   -1.6180 C   0  0  0  0  0  0  0  0  0  0  0  0
    1.9340   13.2060   -2.2110 C   0  0  1  0  0  0  0  0  0  0  0  0
    2.9250   12.6820   -3.2840 C   0  0  0  0  0  0  0  0  0  0  0  0
    3.8380   11.5830   -2.7490 C   0  0  0  0  0  0  0  0  0  0  0  0
    3.0230   10.4050   -2.2220 C   0  0  2  0  0  0  0  0  0  0  0  0
    2.3540    9.7790   -3.3210 O   0  0  0  0  0  0  0  0  0  0  0  0
    1.9840   10.8130   -1.1410 C   0  0  0  0  0  0  0  0  0  0  0  0
    2.7180   11.2090    0.1630 C   0  0  0  0  0  0  0  0  0  0  0  0
    1.1350    9.5600   -0.7980 C   0  0  0  0  0  0  0  0  0  0  0  0
    1.0610   14.4280   -2.7310 C   0  0  1  0  0  0  0  0  0  0  0  0
    0.6240   14.1790   -4.2080 C   0  0  0  0  0  0  0  0  0  0  0  0
    1.9510   15.7270   -2.7440 C   0  0  0  0  0  0  0  0  0  0  0  0
    2.0010   16.5480   -1.4420 C   0  0  0  0  0  0  0  0  0  0  0  0
    0.5910   16.8080   -0.9030 C   0  0  2  0  0  0  0  0  0  0  0  0
   -0.1750   17.6690   -1.9640 C   0  0  0  0  0  0  0  0  0  0  0  0
   -1.0352   20.2487    0.2188 H   0  0  0  0  0  0  0  0  0  0  0  0
    0.2208   20.4761   -1.0451 H   0  0  0  0  0  0  0  0  0  0  0  0
   -0.7955   18.9949   -1.0451 H   0  0  0  0  0  0  0  0  0  0  0  0
    0.6054   19.4205    1.5047 H   0  0  0  0  0  0  0  0  0  0  0  0
    2.7165   18.3838   -0.0720 H   0  0  0  0  0  0  0  0  0  0  0  0
    2.1286   19.9139   -0.8816 H   0  0  0  0  0  0  0  0  0  0  0  0
    3.8718   20.5713    0.5817 H   0  0  0  0  0  0  0  0  0  0  0  0
    2.3067   21.0231    1.3776 H   0  0  0  0  0  0  0  0  0  0  0  0
    2.5445   18.6715    2.0821 H   0  0  0  0  0  0  0  0  0  0  0  0
    6.6254   20.3017    2.7742 H   0  0  0  0  0  0  0  0  0  0  0  0
    6.4087   19.1501    1.4128 H   0  0  0  0  0  0  0  0  0  0  0  0
    5.5294   20.7165    1.4128 H   0  0  0  0  0  0  0  0  0  0  0  0
    5.0139   18.4022    4.7054 H   0  0  0  0  0  0  0  0  0  0  0  0
    4.4068   17.2697    3.4501 H   0  0  0  0  0  0  0  0  0  0  0  0
    6.1322   17.7695    3.4501 H   0  0  0  0  0  0  0  0  0  0  0  0
    1.3113   17.2026    1.1224 H   0  0  0  0  0  0  0  0  0  0  0  0
   -0.9097   16.8976    2.0239 H   0  0  0  0  0  0  0  0  0  0  0  0
   -1.6317   17.9852    0.8185 H   0  0  0  0  0  0  0  0  0  0  0  0
   -1.7808   15.1314    0.7817 H   0  0  0  0  0  0  0  0  0  0  0  0
   -2.1664   16.1581   -0.5967 H   0  0  0  0  0  0  0  0  0  0  0  0
    0.3619   14.9301    1.5173 H   0  0  0  0  0  0  0  0  0  0  0  0
    0.4094   13.5248    0.3993 H   0  0  0  0  0  0  0  0  0  0  0  0
    1.7519   14.7183    0.3993 H   0  0  0  0  0  0  0  0  0  0  0  0
   -0.9243   15.2771   -2.4803 H   0  0  0  0  0  0  0  0  0  0  0  0
   -1.7477   13.4019   -0.9152 H   0  0  0  0  0  0  0  0  0  0  0  0
   -1.5118   13.1048   -2.7167 H   0  0  0  0  0  0  0  0  0  0  0  0
   -0.6953   11.1891   -1.1036 H   0  0  0  0  0  0  0  0  0  0  0  0
    2.4921   13.6515   -1.3743 H   0  0  0  0  0  0  0  0  0  0  0  0
    2.3486   12.2807   -4.1306 H   0  0  0  0  0  0  0  0  0  0  0  0
    3.5613   13.5250   -3.5913 H   0  0  0  0  0  0  0  0  0  0  0  0
    4.4935   11.2330   -3.5601 H   0  0  0  0  0  0  0  0  0  0  0  0
    4.4353   11.9945   -1.9220 H   0  0  0  0  0  0  0  0  0  0  0  0
    3.7239    9.7104   -1.7359 H   0  0  0  0  0  0  0  0  0  0  0  0
    2.9940    9.1930   -3.7600 H   0  0  0  0  0  0  0  0  0  0  0  0
    2.1230   10.8880    1.0307 H   0  0  0  0  0  0  0  0  0  0  0  0
    3.7028   10.7198    0.1925 H   0  0  0  0  0  0  0  0  0  0  0  0
    2.8499   12.3007    0.1925 H   0  0  0  0  0  0  0  0  0  0  0  0
    1.0630    9.4537    0.2945 H   0  0  0  0  0  0  0  0  0  0  0  0
    0.1266    9.6729   -1.2227 H   0  0  0  0  0  0  0  0  0  0  0  0
    1.6137    8.6653   -1.2227 H   0  0  0  0  0  0  0  0  0  0  0  0
   -0.3317   13.6345   -4.2208 H   0  0  0  0  0  0  0  0  0  0  0  0
    0.5032   15.1439   -4.7223 H   0  0  0  0  0  0  0  0  0  0  0  0
    1.3924   13.5831   -4.7223 H   0  0  0  0  0  0  0  0  0  0  0  0
    2.9802   15.4227   -2.9852 H   0  0  0  0  0  0  0  0  0  0  0  0
    1.4807   16.3905   -3.4846 H   0  0  0  0  0  0  0  0  0  0  0  0
    2.5776   15.9921   -0.6880 H   0  0  0  0  0  0  0  0  0  0  0  0
    2.4786   17.5156   -1.6557 H   0  0  0  0  0  0  0  0  0  0  0  0
   -0.8212   18.3953   -1.4494 H   0  0  0  0  0  0  0  0  0  0  0  0
    0.5502   18.2051   -2.5938 H   0  0  0  0  0  0  0  0  0  0  0  0
   -0.7919   17.0111   -2.5938 H   0  0  0  0  0  0  0  0  0  0  0  0
  1  2  1  0
  2  3  1  0
  3  4  1  0
  4  5  1  0
  5  6  1  0
  6  7  1  0
  7  8  1  0
  7  9  1  0
  2 10  1  0
 10 11  1  0
 11 12  1  0
 12 13  1  0
 13 14  1  1
 13 15  1  0
 15 16  1  0
 16 17  1  0
 17 18  2  0
 18 19  1  0
 19 20  1  0
 20 21  1  0
 21 22  1  0
 22 23  1  0
 22 24  1  0
 24 25  1  0
 24 26  1  0
 19 27  1  0
 27 28  1  6
 27 29  1  0
 29 30  1  0
 30 31  1  0
 31 32  1  6
  7  5  1  0
 31 10  1  0
 31 13  1  0
 27 15  1  0
 24 18  1  0
  1 33  1  0
  1 34  1  0
  1 35  1  0
  2 36  1  1
  3 37  1  0
  3 38  1  0
  4 39  1  0
  4 40  1  0
  5 41  1  1
  8 42  1  0
  8 43  1  0
  8 44  1  0
  9 45  1  0
  9 46  1  0
  9 47  1  0
 10 48  1  1
 11 49  1  0
 11 50  1  0
 12 51  1  0
 12 52  1  0
 14 53  1  0
 14 54  1  0
 14 55  1  0
 15 56  1  6
 16 57  1  0
 16 58  1  0
 17 59  1  0
 19 60  1  1
 20 61  1  0
 20 62  1  0
 21 63  1  0
 21 64  1  0
 22 65  1  1
 23 66  1  0
 25 67  1  0
 25 68  1  0
 25 69  1  0
 26 70  1  0
 26 71  1  0
 26 72  1  0
 28 73  1  0
 28 74  1  0
 28 75  1  0
 29 76  1  0
 29 77  1  0
 30 78  1  0
 30 79  1  0
 32 80  1  0
 32 81  1  0
 32 82  1  0
M  END
>  <meeko>  (16) 
{"is_sidechain": [false], "intermolecular_energy": 2.731, "internal_energy": -0.839}

$$$$
EPH_relaxed_0001_pdb2pqr_Repair_123_r2_0001_out
     RDKit          3D

 82 86  0  0  0  0  0  0  0  0999 V2000
    2.0230   16.1150   -0.3840 C   0  0  0  0  0  0  0  0  0  0  0  0
    2.0650   15.8850   -1.8970 C   0  0  2  0  0  0  0  0  0  0  0  0
    1.6710   17.1480   -2.6880 C   0  0  0  0  0  0  0  0  0  0  0  0
    0.1710   17.4550   -2.6500 C   0  0  0  0  0  0  0  0  0  0  0  0
   -0.1080   18.7770   -2.0020 C   0  0  2  0  0  0  0  0  0  0  0  0
    0.7310   19.0830   -0.8800 O   0  0  0  0  0  0  0  0  0  0  0  0
   -0.6690   18.9200   -0.5990 C   0  0  0  0  0  0  0  0  0  0  0  0
   -0.9860   17.7220    0.2400 C   0  0  0  0  0  0  0  0  0  0  0  0
   -1.3630   20.1940   -0.2320 C   0  0  0  0  0  0  0  0  0  0  0  0
    1.1470   14.7280   -2.2730 C   0  0  1  0  0  0  0  0  0  0  0  0
    1.3780   14.2270   -3.7230 C   0  0  0  0  0  0  0  0  0  0  0  0
    1.1510   12.6940   -3.7090 C   0  0  0  0  0  0  0  0  0  0  0  0
    0.4790   12.4120   -2.3450 C   0  0  1  0  0  0  0  0  0  0  0  0
   -1.0280   12.7600   -2.5600 C   0  0  0  0  0  0  0  0  0  0  0  0
    0.6610   10.9690   -1.7700 C   0  0  2  0  0  0  0  0  0  0  0  0
    0.0560    9.8440   -2.6270 C   0  0  0  0  0  0  0  0  0  0  0  0
   -1.3580    9.4890   -2.3080 C   0  0  0  0  0  0  0  0  0  0  0  0
   -2.0220    9.8460   -1.1930 C   0  0  0  0  0  0  0  0  0  0  0  0
   -1.3130   10.6050   -0.0630 C   0  0  1  0  0  0  0  0  0  0  0  0
   -1.6670    9.9540    1.3000 C   0  0  0  0  0  0  0  0  0  0  0  0
   -3.1720    9.8470    1.5240 C   0  0  0  0  0  0  0  0  0  0  0  0
   -3.8330    9.0370    0.4120 C   0  0  2  0  0  0  0  0  0  0  0  0
   -3.3840    7.6810    0.5000 O   0  0  0  0  0  0  0  0  0  0  0  0
   -3.5380    9.5930   -1.0100 C   0  0  0  0  0  0  0  0  0  0  0  0
   -4.2830   10.9370   -1.2070 C   0  0  0  0  0  0  0  0  0  0  0  0
   -4.1440    8.6060   -2.0440 C   0  0  0  0  0  0  0  0  0  0  0  0
    0.2510   10.8220   -0.2490 C   0  0  1  0  0  0  0  0  0  0  0  0
    1.0280    9.5880    0.3040 C   0  0  0  0  0  0  0  0  0  0  0  0
    0.7050   12.0560    0.6160 C   0  0  0  0  0  0  0  0  0  0  0  0
    0.6130   13.4430   -0.0500 C   0  0  0  0  0  0  0  0  0  0  0  0
    1.2620   13.4280   -1.4370 C   0  0  2  0  0  0  0  0  0  0  0  0
    2.7830   13.1020   -1.2500 C   0  0  0  0  0  0  0  0  0  0  0  0
    2.1971   15.1618    0.1367 H   0  0  0  0  0  0  0  0  0  0  0  0
    2.8044   16.8356   -0.1008 H   0  0  0  0  0  0  0  0  0  0  0  0
    1.0373   16.5129   -0.1008 H   0  0  0  0  0  0  0  0  0  0  0  0
    3.1030   15.6383   -2.1648 H   0  0  0  0  0  0  0  0  0  0  0  0
    2.2121   18.0065   -2.2635 H   0  0  0  0  0  0  0  0  0  0  0  0
    1.9350   16.9640   -3.7399 H   0  0  0  0  0  0  0  0  0  0  0  0
   -0.2151   17.4743   -3.6798 H   0  0  0  0  0  0  0  0  0  0  0  0
   -0.3244   16.6715   -2.0578 H   0  0  0  0  0  0  0  0  0  0  0  0
   -0.4117   19.2116   -2.9658 H   0  0  0  0  0  0  0  0  0  0  0  0
   -0.9149   17.9906    1.3043 H   0  0  0  0  0  0  0  0  0  0  0  0
   -2.0063   17.3772    0.0162 H   0  0  0  0  0  0  0  0  0  0  0  0
   -0.2698   16.9177    0.0162 H   0  0  0  0  0  0  0  0  0  0  0  0
   -1.4114   20.2828    0.8633 H   0  0  0  0  0  0  0  0  0  0  0  0
   -0.8052   21.0475   -0.6448 H   0  0  0  0  0  0  0  0  0  0  0  0
   -2.3826   20.1882   -0.6448 H   0  0  0  0  0  0  0  0  0  0  0  0
    0.1710   15.2040   -2.0974 H   0  0  0  0  0  0  0  0  0  0  0  0
    0.6652   14.7091   -4.4082 H   0  0  0  0  0  0  0  0  0  0  0  0
    2.3932   14.4724   -4.0682 H   0  0  0  0  0  0  0  0  0  0  0  0
    0.4924   12.3913   -4.5364 H   0  0  0  0  0  0  0  0  0  0  0  0
    2.0881   12.1322   -3.8366 H   0  0  0  0  0  0  0  0  0  0  0  0
   -1.5210   12.8738   -1.5833 H   0  0  0  0  0  0  0  0  0  0  0  0
   -1.1102   13.7008   -3.1241 H   0  0  0  0  0  0  0  0  0  0  0  0
   -1.5144   11.9505   -3.1241 H   0  0  0  0  0  0  0  0  0  0  0  0
    1.7509   10.8295   -1.8218 H   0  0  0  0  0  0  0  0  0  0  0  0
    0.0979   10.1591   -3.6801 H   0  0  0  0  0  0  0  0  0  0  0  0
    0.6513    8.9443   -2.4119 H   0  0  0  0  0  0  0  0  0  0  0  0
   -1.9040    8.8841   -3.0470 H   0  0  0  0  0  0  0  0  0  0  0  0
   -1.7013   11.6336   -0.0965 H   0  0  0  0  0  0  0  0  0  0  0  0
   -1.2331    8.9437    1.3314 H   0  0  0  0  0  0  0  0  0  0  0  0
   -1.2563   10.5959    2.0932 H   0  0  0  0  0  0  0  0  0  0  0  0
   -3.3581    9.3525    2.4888 H   0  0  0  0  0  0  0  0  0  0  0  0
   -3.6001   10.8603    1.5221 H   0  0  0  0  0  0  0  0  0  0  0  0
   -4.9213    9.1059    0.5565 H   0  0  0  0  0  0  0  0  0  0  0  0
   -3.2780    7.4670    1.4430 H   0  0  0  0  0  0  0  0  0  0  0  0
   -4.5233   11.3704   -0.2250 H   0  0  0  0  0  0  0  0  0  0  0  0
   -3.6418   11.6329   -1.7680 H   0  0  0  0  0  0  0  0  0  0  0  0
   -5.2129   10.7620   -1.7680 H   0  0  0  0  0  0  0  0  0  0  0  0
   -4.6485    7.7843   -1.5146 H   0  0  0  0  0  0  0  0  0  0  0  0
   -4.8718    9.1371   -2.6750 H   0  0  0  0  0  0  0  0  0  0  0  0
   -3.3410    8.1973   -2.6750 H   0  0  0  0  0  0  0  0  0  0  0  0
    1.0147    9.6091    1.4037 H   0  0  0  0  0  0  0  0  0  0  0  0
    0.5486    8.6637   -0.0508 H   0  0  0  0  0  0  0  0  0  0  0  0
    2.0687    9.6208   -0.0508 H   0  0  0  0  0  0  0  0  0  0  0  0
    0.0775   12.0782    1.5192 H   0  0  0  0  0  0  0  0  0  0  0  0
    1.7772   11.8972    0.8035 H   0  0  0  0  0  0  0  0  0  0  0  0
   -0.4456   13.7245   -0.1509 H   0  0  0  0  0  0  0  0  0  0  0  0
    1.1461   14.1708    0.5793 H   0  0  0  0  0  0  0  0  0  0  0  0
    3.0179   13.0516   -0.1766 H   0  0  0  0  0  0  0  0  0  0  0  0
    3.0113   12.1345   -1.7211 H   0  0  0  0  0  0  0  0  0  0  0  0
    3.3877   13.8909   -1.7211 H   0  0  0  0  0  0  0  0  0  0  0  0
  1  2  1  0
  2  3  1  0
  3  4  1  0
  4  5  1  0
  5  6  1  0
  6  7  1  0
  7  8  1  0
  7  9  1  0
  2 10  1  0
 10 11  1  0
 11 12  1  0
 12 13  1  0
 13 14  1  6
 13 15  1  0
 15 16  1  0
 16 17  1  0
 17 18  2  0
 18 19  1  0
 19 20  1  0
 20 21  1  0
 21 22  1  0
 22 23  1  0
 22 24  1  0
 24 25  1  0
 24 26  1  0
 19 27  1  0
 27 28  1  1
 27 29  1  0
 29 30  1  0
 30 31  1  0
 31 32  1  1
  7  5  1  0
 31 10  1  0
 31 13  1  0
 27 15  1  0
 24 18  1  0
  1 33  1  0
  1 34  1  0
  1 35  1  0
  2 36  1  6
  3 37  1  0
  3 38  1  0
  4 39  1  0
  4 40  1  0
  5 41  1  6
  8 42  1  0
  8 43  1  0
  8 44  1  0
  9 45  1  0
  9 46  1  0
  9 47  1  0
 10 48  1  6
 11 49  1  0
 11 50  1  0
 12 51  1  0
 12 52  1  0
 14 53  1  0
 14 54  1  0
 14 55  1  0
 15 56  1  1
 16 57  1  0
 16 58  1  0
 17 59  1  0
 19 60  1  1
 20 61  1  0
 20 62  1  0
 21 63  1  0
 21 64  1  0
 22 65  1  1
 23 66  1  0
 25 67  1  0
 25 68  1  0
 25 69  1  0
 26 70  1  0
 26 71  1  0
 26 72  1  0
 28 73  1  0
 28 74  1  0
 28 75  1  0
 29 76  1  0
 29 77  1  0
 30 78  1  0
 30 79  1  0
 32 80  1  0
 32 81  1  0
 32 82  1  0
M  END
>  <meeko>  (17) 
{"is_sidechain": [false], "intermolecular_energy": 2.731, "internal_energy": -0.839}

$$$$
EPH_relaxed_0001_pdb2pqr_Repair_123_r2_0001_out
     RDKit          3D

 82 86  0  0  0  0  0  0  0  0999 V2000
   -1.7380   14.8380    0.4100 C   0  0  0  0  0  0  0  0  0  0  0  0
   -0.3950   15.5470    0.2130 C   0  0  2  0  0  0  0  0  0  0  0  0
   -0.4400   16.5640   -0.9450 C   0  0  0  0  0  0  0  0  0  0  0  0
   -0.0380   17.9830   -0.5330 C   0  0  0  0  0  0  0  0  0  0  0  0
    1.3830   18.0430   -0.0620 C   0  0  2  0  0  0  0  0  0  0  0  0
    2.0710   19.2580   -0.3840 O   0  0  0  0  0  0  0  0  0  0  0  0
    2.5760   18.0620   -1.0000 C   0  0  0  0  0  0  0  0  0  0  0  0
    2.4000   18.0210   -2.4850 C   0  0  0  0  0  0  0  0  0  0  0  0
    3.9080   17.6290   -0.4720 C   0  0  0  0  0  0  0  0  0  0  0  0
    0.7030   14.5200   -0.0370 C   0  0  1  0  0  0  0  0  0  0  0  0
    0.8390   13.4970    1.1220 C   0  0  0  0  0  0  0  0  0  0  0  0
    1.2250   12.1410    0.4780 C   0  0  0  0  0  0  0  0  0  0  0  0
    1.6200   12.4970   -0.9740 C   0  0  1  0  0  0  0  0  0  0  0  0
    3.0910   13.0110   -0.8750 C   0  0  0  0  0  0  0  0  0  0  0  0
    1.4800   11.3510   -2.0290 C   0  0  2  0  0  0  0  0  0  0  0  0
    2.3720   10.1220   -1.7810 C   0  0  0  0  0  0  0  0  0  0  0  0
    3.7170   10.1700   -2.4270 C   0  0  0  0  0  0  0  0  0  0  0  0
    4.0860   11.0190   -3.4030 C   0  0  0  0  0  0  0  0  0  0  0  0
    3.0750   11.9920   -4.0250 C   0  0  1  0  0  0  0  0  0  0  0  0
    3.2020   11.9520   -5.5700 C   0  0  0  0  0  0  0  0  0  0  0  0
    4.6280   12.2090   -6.0470 C   0  0  0  0  0  0  0  0  0  0  0  0
    5.5940   11.1860   -5.4540 C   0  0  2  0  0  0  0  0  0  0  0  0
    5.2880    9.8960   -5.9920 O   0  0  0  0  0  0  0  0  0  0  0  0
    5.5480   11.1290   -3.9010 C   0  0  0  0  0  0  0  0  0  0  0  0
    6.1660   12.4230   -3.3140 C   0  0  0  0  0  0  0  0  0  0  0  0
    6.4630    9.9630   -3.4390 C   0  0  0  0  0  0  0  0  0  0  0  0
    1.5720   11.8390   -3.5320 C   0  0  1  0  0  0  0  0  0  0  0  0
    0.8360   10.7680   -4.3930 C   0  0  0  0  0  0  0  0  0  0  0  0
    0.8130   13.1980   -3.7670 C   0  0  0  0  0  0  0  0  0  0  0  0
    0.8910   14.2430   -2.6380 C   0  0  0  0  0  0  0  0  0  0  0  0
    0.5560   13.6110   -1.2830 C   0  0  2  0  0  0  0  0  0  0  0  0
   -0.9250   13.1040   -1.3450 C   0  0  0  0  0  0  0  0  0  0  0  0
   -1.9416   14.7305    1.4856 H   0  0  0  0  0  0  0  0  0  0  0  0
   -2.5379   15.4314   -0.0571 H   0  0  0  0  0  0  0  0  0  0  0  0
   -1.6992   13.8428   -0.0571 H   0  0  0  0  0  0  0  0  0  0  0  0
   -0.1773   16.1064    1.1348 H   0  0  0  0  0  0  0  0  0  0  0  0
    0.2472   16.2233   -1.7335 H   0  0  0  0  0  0  0  0  0  0  0  0
   -1.4833   16.6125   -1.2903 H   0  0  0  0  0  0  0  0  0  0  0  0
   -0.1550   18.6519   -1.3984 H   0  0  0  0  0  0  0  0  0  0  0  0
   -0.6876   18.2952    0.2980 H   0  0  0  0  0  0  0  0  0  0  0  0
    1.1426   17.4222    0.8136 H   0  0  0  0  0  0  0  0  0  0  0  0
    1.3542   17.7774   -2.7237 H   0  0  0  0  0  0  0  0  0  0  0  0
    2.6544   19.0025   -2.9116 H   0  0  0  0  0  0  0  0  0  0  0  0
    3.0620   17.2530   -2.9116 H   0  0  0  0  0  0  0  0  0  0  0  0
    3.8864   17.6360    0.6278 H   0  0  0  0  0  0  0  0  0  0  0  0
    4.1306   16.6122   -0.8279 H   0  0  0  0  0  0  0  0  0  0  0  0
    4.6859   18.3205   -0.8279 H   0  0  0  0  0  0  0  0  0  0  0  0
    1.5621   15.1954   -0.1629 H   0  0  0  0  0  0  0  0  0  0  0  0
    1.6228   13.8204    1.8228 H   0  0  0  0  0  0  0  0  0  0  0  0
   -0.1010   13.4127    1.6870 H   0  0  0  0  0  0  0  0  0  0  0  0
    2.0729   11.6856    1.0105 H   0  0  0  0  0  0  0  0  0  0  0  0
    0.4035   11.4106    0.5196 H   0  0  0  0  0  0  0  0  0  0  0  0
    3.3744   13.1100    0.1833 H   0  0  0  0  0  0  0  0  0  0  0  0
    3.7638   12.2947   -1.3693 H   0  0  0  0  0  0  0  0  0  0  0  0
    3.1712   13.9904   -1.3693 H   0  0  0  0  0  0  0  0  0  0  0  0
    0.4477   11.0071   -1.8675 H   0  0  0  0  0  0  0  0  0  0  0  0
    2.5196   10.0225   -0.6955 H   0  0  0  0  0  0  0  0  0  0  0  0
    1.8469    9.2682   -2.2341 H   0  0  0  0  0  0  0  0  0  0  0  0
    4.4703    9.4499   -2.0750 H   0  0  0  0  0  0  0  0  0  0  0  0
    3.3462   12.9913   -3.6538 H   0  0  0  0  0  0  0  0  0  0  0  0
    2.8852   10.9599   -5.9242 H   0  0  0  0  0  0  0  0  0  0  0  0
    2.5647   12.7503   -5.9780 H   0  0  0  0  0  0  0  0  0  0  0  0
    4.6587   12.1393   -7.1444 H   0  0  0  0  0  0  0  0  0  0  0  0
    4.9333   13.2129   -5.7169 H   0  0  0  0  0  0  0  0  0  0  0  0
    6.6130   11.4980   -5.7267 H   0  0  0  0  0  0  0  0  0  0  0  0
    4.8440    9.3850   -5.2950 H   0  0  0  0  0  0  0  0  0  0  0  0
    6.1429   12.3747   -2.2153 H   0  0  0  0  0  0  0  0  0  0  0  0
    7.2074   12.5194   -3.6550 H   0  0  0  0  0  0  0  0  0  0  0  0
    5.5864   13.2935   -3.6550 H   0  0  0  0  0  0  0  0  0  0  0  0
    6.4886    9.9304   -2.3398 H   0  0  0  0  0  0  0  0  0  0  0  0
    6.0678    9.0118   -3.8249 H   0  0  0  0  0  0  0  0  0  0  0  0
    7.4809   10.1207   -3.8249 H   0  0  0  0  0  0  0  0  0  0  0  0
    0.3385   10.0440   -3.7310 H   0  0  0  0  0  0  0  0  0  0  0  0
    0.0849   11.2608   -5.0278 H   0  0  0  0  0  0  0  0  0  0  0  0
    1.5653   10.2434   -5.0278 H   0  0  0  0  0  0  0  0  0  0  0  0
    1.2288   13.6583   -4.6754 H   0  0  0  0  0  0  0  0  0  0  0  0
   -0.2506   12.9252   -3.8328 H   0  0  0  0  0  0  0  0  0  0  0  0
    1.9095   14.6569   -2.6003 H   0  0  0  0  0  0  0  0  0  0  0  0
    0.1600   15.0386   -2.8447 H   0  0  0  0  0  0  0  0  0  0  0  0
   -1.3105   12.9720   -0.3232 H   0  0  0  0  0  0  0  0  0  0  0  0
   -1.5431   13.8417   -1.8777 H   0  0  0  0  0  0  0  0  0  0  0  0
   -0.9613   12.1422   -1.8777 H   0  0  0  0  0  0  0  0  0  0  0  0
  1  2  1  0
  2  3  1  0
  3  4  1  0
  4  5  1  0
  5  6  1  0
  6  7  1  0
  7  8  1  0
  7  9  1  0
  2 10  1  0
 10 11  1  0
 11 12  1  0
 12 13  1  0
 13 14  1  1
 13 15  1  0
 15 16  1  0
 16 17  1  0
 17 18  2  0
 18 19  1  0
 19 20  1  0
 20 21  1  0
 21 22  1  0
 22 23  1  0
 22 24  1  0
 24 25  1  0
 24 26  1  0
 19 27  1  0
 27 28  1  6
 27 29  1  0
 29 30  1  0
 30 31  1  0
 31 32  1  6
  7  5  1  0
 31 10  1  0
 31 13  1  0
 27 15  1  0
 24 18  1  0
  1 33  1  0
  1 34  1  0
  1 35  1  0
  2 36  1  1
  3 37  1  0
  3 38  1  0
  4 39  1  0
  4 40  1  0
  5 41  1  1
  8 42  1  0
  8 43  1  0
  8 44  1  0
  9 45  1  0
  9 46  1  0
  9 47  1  0
 10 48  1  6
 11 49  1  0
 11 50  1  0
 12 51  1  0
 12 52  1  0
 14 53  1  0
 14 54  1  0
 14 55  1  0
 15 56  1  6
 16 57  1  0
 16 58  1  0
 17 59  1  0
 19 60  1  1
 20 61  1  0
 20 62  1  0
 21 63  1  0
 21 64  1  0
 22 65  1  1
 23 66  1  0
 25 67  1  0
 25 68  1  0
 25 69  1  0
 26 70  1  0
 26 71  1  0
 26 72  1  0
 28 73  1  0
 28 74  1  0
 28 75  1  0
 29 76  1  0
 29 77  1  0
 30 78  1  0
 30 79  1  0
 32 80  1  0
 32 81  1  0
 32 82  1  0
M  END
>  <meeko>  (18) 
{"is_sidechain": [false], "intermolecular_energy": 2.731, "internal_energy": -0.839}

$$$$
EPH_relaxed_0001_pdb2pqr_Repair_123_r2_0001_out
     RDKit          3D

 82 86  0  0  0  0  0  0  0  0999 V2000
    3.6010   18.9800    0.9450 C   0  0  0  0  0  0  0  0  0  0  0  0
    2.6020   18.4790   -0.1020 C   0  0  2  0  0  0  0  0  0  0  0  0
    1.1450   18.5780    0.3910 C   0  0  0  0  0  0  0  0  0  0  0  0
    0.6010   20.0090    0.4210 C   0  0  0  0  0  0  0  0  0  0  0  0
   -0.8930   20.0310    0.5350 C   0  0  2  0  0  0  0  0  0  0  0  0
   -1.5210   18.7460    0.4360 O   0  0  0  0  0  0  0  0  0  0  0  0
   -1.8250   19.6820   -0.6110 C   0  0  0  0  0  0  0  0  0  0  0  0
   -1.2960   19.2860   -1.9540 C   0  0  0  0  0  0  0  0  0  0  0  0
   -3.2310   20.1950   -0.5710 C   0  0  0  0  0  0  0  0  0  0  0  0
    2.9270   17.0400   -0.4830 C   0  0  1  0  0  0  0  0  0  0  0  0
    3.2540   16.1550    0.7500 C   0  0  0  0  0  0  0  0  0  0  0  0
    2.7040   14.7380    0.4430 C   0  0  0  0  0  0  0  0  0  0  0  0
    2.3810   14.7650   -1.0700 C   0  0  1  0  0  0  0  0  0  0  0  0
    3.7510   14.5240   -1.7770 C   0  0  0  0  0  0  0  0  0  0  0  0
    1.2920   13.7570   -1.5610 C   0  0  2  0  0  0  0  0  0  0  0  0
    1.6440   12.2710   -1.3680 C   0  0  0  0  0  0  0  0  0  0  0  0
    2.3530   11.6300   -2.5140 C   0  0  0  0  0  0  0  0  0  0  0  0
    2.4440   12.1340   -3.7590 C   0  0  0  0  0  0  0  0  0  0  0  0
    1.7100   13.4260   -4.1410 C   0  0  1  0  0  0  0  0  0  0  0  0
    0.9830   13.2270   -5.4970 C   0  0  0  0  0  0  0  0  0  0  0  0
    1.9220   12.7420   -6.5980 C   0  0  0  0  0  0  0  0  0  0  0  0
    2.5890   11.4260   -6.2060 C   0  0  2  0  0  0  0  0  0  0  0  0
    1.5890   10.4040   -6.1430 O   0  0  0  0  0  0  0  0  0  0  0  0
    3.3440   11.5020   -4.8490 C   0  0  0  0  0  0  0  0  0  0  0  0
    4.6080   12.3820   -5.0070 C   0  0  0  0  0  0  0  0  0  0  0  0
    3.8490   10.0750   -4.5030 C   0  0  0  0  0  0  0  0  0  0  0  0
    0.7600   14.0390   -3.0240 C   0  0  1  0  0  0  0  0  0  0  0  0
   -0.6560   13.3930   -3.1160 C   0  0  0  0  0  0  0  0  0  0  0  0
    0.5650   15.5770   -3.3040 C   0  0  0  0  0  0  0  0  0  0  0  0
    1.6070   16.5320   -2.6910 C   0  0  0  0  0  0  0  0  0  0  0  0
    1.8220   16.2280   -1.2050 C   0  0  2  0  0  0  0  0  0  0  0  0
    0.4660   16.4840   -0.4630 C   0  0  0  0  0  0  0  0  0  0  0  0
    3.2064   18.7821    1.9525 H   0  0  0  0  0  0  0  0  0  0  0  0
    4.5597   18.4560    0.8173 H   0  0  0  0  0  0  0  0  0  0  0  0
    3.7545   20.0617    0.8173 H   0  0  0  0  0  0  0  0  0  0  0  0
    2.6954   19.1275   -0.9856 H   0  0  0  0  0  0  0  0  0  0  0  0
    0.5103   17.9792   -0.2788 H   0  0  0  0  0  0  0  0  0  0  0  0
    1.1301   18.2068    1.4264 H   0  0  0  0  0  0  0  0  0  0  0  0
    1.0323   20.5365    1.2846 H   0  0  0  0  0  0  0  0  0  0  0  0
    0.8806   20.5023   -0.5216 H   0  0  0  0  0  0  0  0  0  0  0  0
   -0.8513   20.8940    1.2159 H   0  0  0  0  0  0  0  0  0  0  0  0
   -0.4215   18.6313   -1.8251 H   0  0  0  0  0  0  0  0  0  0  0  0
   -2.0771   18.7488   -2.5119 H   0  0  0  0  0  0  0  0  0  0  0  0
   -1.0006   20.1868   -2.5119 H   0  0  0  0  0  0  0  0  0  0  0  0
   -3.5493   20.3111    0.4755 H   0  0  0  0  0  0  0  0  0  0  0  0
   -3.2805   21.1691   -1.0796 H   0  0  0  0  0  0  0  0  0  0  0  0
   -3.8962   19.4816   -1.0796 H   0  0  0  0  0  0  0  0  0  0  0  0
    3.7715   17.2165   -1.1654 H   0  0  0  0  0  0  0  0  0  0  0  0
    4.3418   16.1129    0.9081 H   0  0  0  0  0  0  0  0  0  0  0  0
    2.7982   16.5660    1.6629 H   0  0  0  0  0  0  0  0  0  0  0  0
    3.4606   13.9711    0.6651 H   0  0  0  0  0  0  0  0  0  0  0  0
    1.8231   14.4907    1.0536 H   0  0  0  0  0  0  0  0  0  0  0  0
    4.5357   14.3860   -1.0186 H   0  0  0  0  0  0  0  0  0  0  0  0
    3.6859   13.6235   -2.4054 H   0  0  0  0  0  0  0  0  0  0  0  0
    3.9971   15.3926   -2.4054 H   0  0  0  0  0  0  0  0  0  0  0  0
    0.4573   13.9585   -0.8735 H   0  0  0  0  0  0  0  0  0  0  0  0
    2.2877   12.1867   -0.4800 H   0  0  0  0  0  0  0  0  0  0  0  0
    0.6850   11.7414   -1.2688 H   0  0  0  0  0  0  0  0  0  0  0  0
    2.8430   10.6634   -2.3254 H   0  0  0  0  0  0  0  0  0  0  0  0
    2.4866   14.1983   -4.2437 H   0  0  0  0  0  0  0  0  0  0  0  0
    0.1832   12.4838   -5.3627 H   0  0  0  0  0  0  0  0  0  0  0  0
    0.5806   14.2027   -5.8068 H   0  0  0  0  0  0  0  0  0  0  0  0
    1.3453   12.5919   -7.5226 H   0  0  0  0  0  0  0  0  0  0  0  0
    2.7043   13.5000   -6.7513 H   0  0  0  0  0  0  0  0  0  0  0  0
    3.3440   11.1973   -6.9726 H   0  0  0  0  0  0  0  0  0  0  0  0
    0.7290   10.8400   -6.0240 H   0  0  0  0  0  0  0  0  0  0  0  0
    4.9942   12.6509   -4.0127 H   0  0  0  0  0  0  0  0  0  0  0  0
    5.3771   11.8231   -5.5603 H   0  0  0  0  0  0  0  0  0  0  0  0
    4.3507   13.2973   -5.5603 H   0  0  0  0  0  0  0  0  0  0  0  0
    3.8912    9.9559   -3.4103 H   0  0  0  0  0  0  0  0  0  0  0  0
    3.1601    9.3295   -4.9268 H   0  0  0  0  0  0  0  0  0  0  0  0
    4.8535    9.9287   -4.9268 H   0  0  0  0  0  0  0  0  0  0  0  0
   -1.0447   13.2157   -2.1024 H   0  0  0  0  0  0  0  0  0  0  0  0
   -1.3340   14.0709   -3.6553 H   0  0  0  0  0  0  0  0  0  0  0  0
   -0.5884   12.4366   -3.6553 H   0  0  0  0  0  0  0  0  0  0  0  0
    0.5819   15.7216   -4.3943 H   0  0  0  0  0  0  0  0  0  0  0  0
   -0.3867   15.8396   -2.8190 H   0  0  0  0  0  0  0  0  0  0  0  0
    2.5617   16.4133   -3.2244 H   0  0  0  0  0  0  0  0  0  0  0  0
    1.2374   17.5635   -2.7881 H   0  0  0  0  0  0  0  0  0  0  0  0
    0.6313   16.4528    0.6241 H   0  0  0  0  0  0  0  0  0  0  0  0
    0.0740   17.4720   -0.7461 H   0  0  0  0  0  0  0  0  0  0  0  0
   -0.2593   15.7069   -0.7461 H   0  0  0  0  0  0  0  0  0  0  0  0
  1  2  1  0
  2  3  1  0
  3  4  1  0
  4  5  1  0
  5  6  1  0
  6  7  1  0
  7  8  1  0
  7  9  1  0
  2 10  1  0
 10 11  1  0
 11 12  1  0
 12 13  1  0
 13 14  1  6
 13 15  1  0
 15 16  1  0
 16 17  1  0
 17 18  2  0
 18 19  1  0
 19 20  1  0
 20 21  1  0
 21 22  1  0
 22 23  1  0
 22 24  1  0
 24 25  1  0
 24 26  1  0
 19 27  1  0
 27 28  1  1
 27 29  1  0
 29 30  1  0
 30 31  1  0
 31 32  1  1
  7  5  1  0
 31 10  1  0
 31 13  1  0
 27 15  1  0
 24 18  1  0
  1 33  1  0
  1 34  1  0
  1 35  1  0
  2 36  1  6
  3 37  1  0
  3 38  1  0
  4 39  1  0
  4 40  1  0
  5 41  1  1
  8 42  1  0
  8 43  1  0
  8 44  1  0
  9 45  1  0
  9 46  1  0
  9 47  1  0
 10 48  1  6
 11 49  1  0
 11 50  1  0
 12 51  1  0
 12 52  1  0
 14 53  1  0
 14 54  1  0
 14 55  1  0
 15 56  1  1
 16 57  1  0
 16 58  1  0
 17 59  1  0
 19 60  1  6
 20 61  1  0
 20 62  1  0
 21 63  1  0
 21 64  1  0
 22 65  1  6
 23 66  1  0
 25 67  1  0
 25 68  1  0
 25 69  1  0
 26 70  1  0
 26 71  1  0
 26 72  1  0
 28 73  1  0
 28 74  1  0
 28 75  1  0
 29 76  1  0
 29 77  1  0
 30 78  1  0
 30 79  1  0
 32 80  1  0
 32 81  1  0
 32 82  1  0
M  END
>  <meeko>  (19) 
{"is_sidechain": [false], "intermolecular_energy": 2.731, "internal_energy": -0.839}

$$$$
EPH_relaxed_0001_pdb2pqr_Repair_123_r2_0001_out
     RDKit          3D

 82 86  0  0  0  0  0  0  0  0999 V2000
    1.9870   18.1210   -2.6110 C   0  0  0  0  0  0  0  0  0  0  0  0
    0.4740   17.8900   -2.6720 C   0  0  2  0  0  0  0  0  0  0  0  0
   -0.2350   18.3380   -1.3790 C   0  0  0  0  0  0  0  0  0  0  0  0
    0.5060   17.9360   -0.1000 C   0  0  0  0  0  0  0  0  0  0  0  0
    1.0880   19.1260    0.6000 C   0  0  2  0  0  0  0  0  0  0  0  0
    1.9890   19.9080   -0.1950 O   0  0  0  0  0  0  0  0  0  0  0  0
    2.5590   19.2540    0.9500 C   0  0  0  0  0  0  0  0  0  0  0  0
    3.5380   18.1750    0.6110 C   0  0  0  0  0  0  0  0  0  0  0  0
    2.9540   20.1950    2.0460 C   0  0  0  0  0  0  0  0  0  0  0  0
    0.1830   16.4190   -2.9440 C   0  0  1  0  0  0  0  0  0  0  0  0
    0.3150   16.0510   -4.4460 C   0  0  0  0  0  0  0  0  0  0  0  0
    0.8760   14.6070   -4.5040 C   0  0  0  0  0  0  0  0  0  0  0  0
    0.7360   14.0740   -3.0590 C   0  0  1  0  0  0  0  0  0  0  0  0
   -0.7540   13.6260   -2.9400 C   0  0  0  0  0  0  0  0  0  0  0  0
    1.7180   12.9310   -2.6450 C   0  0  2  0  0  0  0  0  0  0  0  0
    1.5750   11.6260   -3.4480 C   0  0  0  0  0  0  0  0  0  0  0  0
    0.6200   10.6290   -2.8790 C   0  0  0  0  0  0  0  0  0  0  0  0
    0.1210   10.6480   -1.6290 C   0  0  0  0  0  0  0  0  0  0  0  0
    0.5900   11.6950   -0.6100 C   0  0  1  0  0  0  0  0  0  0  0  0
    0.8990   10.9990    0.7410 C   0  0  0  0  0  0  0  0  0  0  0  0
   -0.2740   10.1700    1.2550 C   0  0  0  0  0  0  0  0  0  0  0  0
   -0.6740    9.1030    0.2390 C   0  0  2  0  0  0  0  0  0  0  0  0
    0.3880    8.1500    0.1300 O   0  0  0  0  0  0  0  0  0  0  0  0
   -0.9990    9.6850   -1.1650 C   0  0  0  0  0  0  0  0  0  0  0  0
   -2.3280   10.4780   -1.1050 C   0  0  0  0  0  0  0  0  0  0  0  0
   -1.2480    8.4940   -2.1300 C   0  0  0  0  0  0  0  0  0  0  0  0
    1.7670   12.6490   -1.0890 C   0  0  1  0  0  0  0  0  0  0  0  0
    3.1460   11.9800   -0.8010 C   0  0  0  0  0  0  0  0  0  0  0  0
    1.7310   13.9750   -0.2400 C   0  0  0  0  0  0  0  0  0  0  0  0
    0.8340   15.1120   -0.7650 C   0  0  0  0  0  0  0  0  0  0  0  0
    1.0950   15.3750   -2.2510 C   0  0  2  0  0  0  0  0  0  0  0  0
    2.5800   15.8490   -2.4000 C   0  0  0  0  0  0  0  0  0  0  0  0
    2.3083   18.1701   -1.5601 H   0  0  0  0  0  0  0  0  0  0  0  0
    2.5052   17.2916   -3.1145 H   0  0  0  0  0  0  0  0  0  0  0  0
    2.2340   19.0673   -3.1145 H   0  0  0  0  0  0  0  0  0  0  0  0
    0.0787   18.5048   -3.4940 H   0  0  0  0  0  0  0  0  0  0  0  0
   -0.3290   19.4338   -1.3962 H   0  0  0  0  0  0  0  0  0  0  0  0
   -1.2122   17.8335   -1.3567 H   0  0  0  0  0  0  0  0  0  0  0  0
   -0.1996   17.4334    0.5779 H   0  0  0  0  0  0  0  0  0  0  0  0
    1.3313   17.2641   -0.3784 H   0  0  0  0  0  0  0  0  0  0  0  0
    0.1734   19.2504    1.1983 H   0  0  0  0  0  0  0  0  0  0  0  0
    3.9359   17.7365    1.5380 H   0  0  0  0  0  0  0  0  0  0  0  0
    3.0339   17.3940    0.0228 H   0  0  0  0  0  0  0  0  0  0  0  0
    4.3642   18.6011    0.0228 H   0  0  0  0  0  0  0  0  0  0  0  0
    2.7569   19.7256    3.0211 H   0  0  0  0  0  0  0  0  0  0  0  0
    4.0257   20.4277    1.9610 H   0  0  0  0  0  0  0  0  0  0  0  0
    2.3695   21.1229    1.9610 H   0  0  0  0  0  0  0  0  0  0  0  0
   -0.8381   16.3546   -2.5399 H   0  0  0  0  0  0  0  0  0  0  0  0
   -0.6694   16.0950   -4.9349 H   0  0  0  0  0  0  0  0  0  0  0  0
    0.9797   16.7547   -4.9685 H   0  0  0  0  0  0  0  0  0  0  0  0
    0.2911   13.9912   -5.2031 H   0  0  0  0  0  0  0  0  0  0  0  0
    1.9166   14.5784   -4.8595 H   0  0  0  0  0  0  0  0  0  0  0  0
   -1.0284   13.5435   -1.8780 H   0  0  0  0  0  0  0  0  0  0  0  0
   -1.4006   14.3695   -3.4291 H   0  0  0  0  0  0  0  0  0  0  0  0
   -0.8834   12.6492   -3.4291 H   0  0  0  0  0  0  0  0  0  0  0  0
    2.6965   13.3489   -2.9239 H   0  0  0  0  0  0  0  0  0  0  0  0
    1.2323   11.8856   -4.4605 H   0  0  0  0  0  0  0  0  0  0  0  0
    2.5645   11.1459   -3.4277 H   0  0  0  0  0  0  0  0  0  0  0  0
    0.2968    9.8092   -3.5374 H   0  0  0  0  0  0  0  0  0  0  0  0
   -0.2482   12.3963   -0.4853 H   0  0  0  0  0  0  0  0  0  0  0  0
    1.7664   10.3362    0.6057 H   0  0  0  0  0  0  0  0  0  0  0  0
    1.1016   11.7857    1.4827 H   0  0  0  0  0  0  0  0  0  0  0  0
    0.0163    9.6802    2.1962 H   0  0  0  0  0  0  0  0  0  0  0  0
   -1.1320   10.8387    1.4184 H   0  0  0  0  0  0  0  0  0  0  0  0
   -1.5975    8.6297    0.6038 H   0  0  0  0  0  0  0  0  0  0  0  0
    1.2000    8.5760    0.4520 H   0  0  0  0  0  0  0  0  0  0  0  0
   -2.6081   10.6452   -0.0545 H   0  0  0  0  0  0  0  0  0  0  0  0
   -2.1997   11.4473   -1.6090 H   0  0  0  0  0  0  0  0  0  0  0  0
   -3.1201    9.9048   -1.6090 H   0  0  0  0  0  0  0  0  0  0  0  0
   -1.4387    7.5820   -1.5453 H   0  0  0  0  0  0  0  0  0  0  0  0
   -2.1200    8.7120   -2.7641 H   0  0  0  0  0  0  0  0  0  0  0  0
   -0.3617    8.3444   -2.7641 H   0  0  0  0  0  0  0  0  0  0  0  0
    3.2979   11.9063    0.2860 H   0  0  0  0  0  0  0  0  0  0  0  0
    3.1644   10.9728   -1.2429 H   0  0  0  0  0  0  0  0  0  0  0  0
    3.9484   12.5890   -1.2429 H   0  0  0  0  0  0  0  0  0  0  0  0
    1.3809   13.7142    0.7697 H   0  0  0  0  0  0  0  0  0  0  0  0
    2.7555   14.3730   -0.2844 H   0  0  0  0  0  0  0  0  0  0  0  0
   -0.2206   14.8301   -0.6293 H   0  0  0  0  0  0  0  0  0  0  0  0
    1.0634   16.0283   -0.2012 H   0  0  0  0  0  0  0  0  0  0  0  0
    3.0217   15.9900   -1.4025 H   0  0  0  0  0  0  0  0  0  0  0  0
    3.1538   15.0894   -2.9511 H   0  0  0  0  0  0  0  0  0  0  0  0
    2.6076   16.8006   -2.9511 H   0  0  0  0  0  0  0  0  0  0  0  0
  1  2  1  0
  2  3  1  0
  3  4  1  0
  4  5  1  0
  5  6  1  0
  6  7  1  0
  7  8  1  0
  7  9  1  0
  2 10  1  0
 10 11  1  0
 11 12  1  0
 12 13  1  0
 13 14  1  1
 13 15  1  0
 15 16  1  0
 16 17  1  0
 17 18  2  0
 18 19  1  0
 19 20  1  0
 20 21  1  0
 21 22  1  0
 22 23  1  0
 22 24  1  0
 24 25  1  0
 24 26  1  0
 19 27  1  0
 27 28  1  6
 27 29  1  0
 29 30  1  0
 30 31  1  0
 31 32  1  1
  7  5  1  0
 31 10  1  0
 31 13  1  0
 27 15  1  0
 24 18  1  0
  1 33  1  0
  1 34  1  0
  1 35  1  0
  2 36  1  6
  3 37  1  0
  3 38  1  0
  4 39  1  0
  4 40  1  0
  5 41  1  1
  8 42  1  0
  8 43  1  0
  8 44  1  0
  9 45  1  0
  9 46  1  0
  9 47  1  0
 10 48  1  1
 11 49  1  0
 11 50  1  0
 12 51  1  0
 12 52  1  0
 14 53  1  0
 14 54  1  0
 14 55  1  0
 15 56  1  6
 16 57  1  0
 16 58  1  0
 17 59  1  0
 19 60  1  1
 20 61  1  0
 20 62  1  0
 21 63  1  0
 21 64  1  0
 22 65  1  1
 23 66  1  0
 25 67  1  0
 25 68  1  0
 25 69  1  0
 26 70  1  0
 26 71  1  0
 26 72  1  0
 28 73  1  0
 28 74  1  0
 28 75  1  0
 29 76  1  0
 29 77  1  0
 30 78  1  0
 30 79  1  0
 32 80  1  0
 32 81  1  0
 32 82  1  0
M  END
>  <meeko>  (20) 
{"is_sidechain": [false], "intermolecular_energy": 2.731, "internal_energy": -0.839}

$$$$
