EPH_relaxed_0001_pdb2pqr_Repair_72_r2_0001_out
     RDKit          3D

 82 86  0  0  0  0  0  0  0  0999 V2000
   -1.6970    8.5840   -1.8660 C   0  0  0  0  0  0  0  0  0  0  0  0
   -2.0780    9.1120   -0.4800 C   0  0  2  0  0  0  0  0  0  0  0  0
   -3.5720    9.4820   -0.3900 C   0  0  0  0  0  0  0  0  0  0  0  0
   -4.4990    8.2700   -0.2610 C   0  0  0  0  0  0  0  0  0  0  0  0
   -5.1870    7.9570   -1.5550 C   0  0  2  0  0  0  0  0  0  0  0  0
   -6.3600    8.7380   -1.8140 O   0  0  0  0  0  0  0  0  0  0  0  0
   -6.5640    7.3270   -1.6400 C   0  0  0  0  0  0  0  0  0  0  0  0
   -7.3370    6.9720   -0.4080 C   0  0  0  0  0  0  0  0  0  0  0  0
   -6.9490    6.6130   -2.8980 C   0  0  0  0  0  0  0  0  0  0  0  0
   -1.2200   10.3230   -0.1310 C   0  0  1  0  0  0  0  0  0  0  0  0
   -0.1850   10.0200    0.9850 C   0  0  0  0  0  0  0  0  0  0  0  0
    1.0820   10.8500    0.6570 C   0  0  0  0  0  0  0  0  0  0  0  0
    0.6250   11.8460   -0.4340 C   0  0  1  0  0  0  0  0  0  0  0  0
   -0.0820   12.9990    0.3450 C   0  0  0  0  0  0  0  0  0  0  0  0
    1.7410   12.3900   -1.3840 C   0  0  2  0  0  0  0  0  0  0  0  0
    2.8440   13.2090   -0.6920 C   0  0  0  0  0  0  0  0  0  0  0  0
    2.5910   14.6780   -0.6080 C   0  0  0  0  0  0  0  0  0  0  0  0
    1.6650   15.3540   -1.3130 C   0  0  0  0  0  0  0  0  0  0  0  0
    0.8190   14.6480   -2.3810 C   0  0  1  0  0  0  0  0  0  0  0  0
    0.7870   15.5110   -3.6700 C   0  0  0  0  0  0  0  0  0  0  0  0
    0.3210   16.9390   -3.4060 C   0  0  0  0  0  0  0  0  0  0  0  0
    1.2210   17.6270   -2.3830 C   0  0  2  0  0  0  0  0  0  0  0  0
    2.5220   17.7990   -2.9560 O   0  0  0  0  0  0  0  0  0  0  0  0
    1.3390   16.8440   -1.0460 C   0  0  0  0  0  0  0  0  0  0  0  0
   -0.0060   16.9170   -0.2800 C   0  0  0  0  0  0  0  0  0  0  0  0
    2.3840   17.5700   -0.1570 C   0  0  0  0  0  0  0  0  0  0  0  0
    1.1930   13.1310   -2.6710 C   0  0  1  0  0  0  0  0  0  0  0  0
    2.3230   13.0570   -3.7420 C   0  0  0  0  0  0  0  0  0  0  0  0
   -0.0570   12.4030   -3.2930 C   0  0  0  0  0  0  0  0  0  0  0  0
   -1.0620   11.7820   -2.3050 C   0  0  0  0  0  0  0  0  0  0  0  0
   -0.3440   10.9230   -1.2590 C   0  0  2  0  0  0  0  0  0  0  0  0
    0.3580    9.7410   -2.0120 C   0  0  0  0  0  0  0  0  0  0  0  0
   -1.0565    7.6964   -1.7569 H   0  0  0  0  0  0  0  0  0  0  0  0
   -2.6087    8.3126   -2.4184 H   0  0  0  0  0  0  0  0  0  0  0  0
   -1.1521    9.3637   -2.4184 H   0  0  0  0  0  0  0  0  0  0  0  0
   -1.8936    8.3044    0.2437 H   0  0  0  0  0  0  0  0  0  0  0  0
   -3.7180   10.1262    0.4896 H   0  0  0  0  0  0  0  0  0  0  0  0
   -3.8349    9.9896   -1.3298 H   0  0  0  0  0  0  0  0  0  0  0  0
   -3.9039    7.3974    0.0463 H   0  0  0  0  0  0  0  0  0  0  0  0
   -5.2692    8.5061    0.4880 H   0  0  0  0  0  0  0  0  0  0  0  0
   -4.2280    7.7009   -2.0291 H   0  0  0  0  0  0  0  0  0  0  0  0
   -6.7508    7.2412    0.4830 H   0  0  0  0  0  0  0  0  0  0  0  0
   -8.2889    7.5232   -0.4009 H   0  0  0  0  0  0  0  0  0  0  0  0
   -7.5393    5.8908   -0.4009 H   0  0  0  0  0  0  0  0  0  0  0  0
   -7.4570    5.6709   -2.6441 H   0  0  0  0  0  0  0  0  0  0  0  0
   -7.6270    7.2480   -3.4872 H   0  0  0  0  0  0  0  0  0  0  0  0
   -6.0459    6.3954   -3.4872 H   0  0  0  0  0  0  0  0  0  0  0  0
   -2.0108   11.0341    0.1500 H   0  0  0  0  0  0  0  0  0  0  0  0
   -0.5877   10.3148    1.9653 H   0  0  0  0  0  0  0  0  0  0  0  0
    0.0468    8.9455    1.0276 H   0  0  0  0  0  0  0  0  0  0  0  0
    1.4360   11.3871    1.5493 H   0  0  0  0  0  0  0  0  0  0  0  0
    1.9184   10.2191    0.3216 H   0  0  0  0  0  0  0  0  0  0  0  0
    0.0225   12.8286    1.4267 H   0  0  0  0  0  0  0  0  0  0  0  0
    0.3823   13.9600    0.0787 H   0  0  0  0  0  0  0  0  0  0  0  0
   -1.1490   13.0210    0.0787 H   0  0  0  0  0  0  0  0  0  0  0  0
    2.2268   11.4658   -1.7303 H   0  0  0  0  0  0  0  0  0  0  0  0
    2.9602   12.8252    0.3323 H   0  0  0  0  0  0  0  0  0  0  0  0
    3.7448   13.0907   -1.3121 H   0  0  0  0  0  0  0  0  0  0  0  0
    3.2143   15.2570    0.0893 H   0  0  0  0  0  0  0  0  0  0  0  0
   -0.1945   14.5664   -1.9612 H   0  0  0  0  0  0  0  0  0  0  0  0
    1.8000   15.5440   -4.0976 H   0  0  0  0  0  0  0  0  0  0  0  0
    0.0697   15.0485   -4.3639 H   0  0  0  0  0  0  0  0  0  0  0  0
    0.3479   17.5063   -4.3481 H   0  0  0  0  0  0  0  0  0  0  0  0
   -0.7031   16.9055   -3.0059 H   0  0  0  0  0  0  0  0  0  0  0  0
    0.7622   18.5966   -2.1391 H   0  0  0  0  0  0  0  0  0  0  0  0
    2.5550   17.2730   -3.7730 H   0  0  0  0  0  0  0  0  0  0  0  0
    0.1877   16.9065    0.8028 H   0  0  0  0  0  0  0  0  0  0  0  0
   -0.5315   17.8450   -0.5495 H   0  0  0  0  0  0  0  0  0  0  0  0
   -0.6289   16.0513   -0.5495 H   0  0  0  0  0  0  0  0  0  0  0  0
    2.1430   17.4026    0.9032 H   0  0  0  0  0  0  0  0  0  0  0  0
    3.3872   17.1733   -0.3721 H   0  0  0  0  0  0  0  0  0  0  0  0
    2.3623   18.6486   -0.3721 H   0  0  0  0  0  0  0  0  0  0  0  0
    3.2999   12.9930   -3.2405 H   0  0  0  0  0  0  0  0  0  0  0  0
    2.1746   12.1667   -4.3707 H   0  0  0  0  0  0  0  0  0  0  0  0
    2.2920   13.9591   -4.3707 H   0  0  0  0  0  0  0  0  0  0  0  0
   -0.6014   13.1391   -3.9028 H   0  0  0  0  0  0  0  0  0  0  0  0
    0.3558   11.5529   -3.8559 H   0  0  0  0  0  0  0  0  0  0  0  0
   -1.6093   12.5880   -1.7943 H   0  0  0  0  0  0  0  0  0  0  0  0
   -1.7566   11.1412   -2.8679 H   0  0  0  0  0  0  0  0  0  0  0  0
    0.7766    9.0361   -1.2786 H   0  0  0  0  0  0  0  0  0  0  0  0
   -0.3772    9.2201   -2.6429 H   0  0  0  0  0  0  0  0  0  0  0  0
    1.1672   10.1373   -2.6429 H   0  0  0  0  0  0  0  0  0  0  0  0
  1  2  1  0
  2  3  1  0
  3  4  1  0
  4  5  1  0
  5  6  1  0
  6  7  1  0
  7  8  1  0
  7  9  1  0
  2 10  1  0
 10 11  1  0
 11 12  1  0
 12 13  1  0
 13 14  1  1
 13 15  1  0
 15 16  1  0
 16 17  1  0
 17 18  2  0
 18 19  1  0
 19 20  1  0
 20 21  1  0
 21 22  1  0
 22 23  1  0
 22 24  1  0
 24 25  1  0
 24 26  1  0
 19 27  1  0
 27 28  1  6
 27 29  1  0
 29 30  1  0
 30 31  1  0
 31 32  1  6
  7  5  1  0
 31 10  1  0
 31 13  1  0
 27 15  1  0
 24 18  1  0
  1 33  1  0
  1 34  1  0
  1 35  1  0
  2 36  1  1
  3 37  1  0
  3 38  1  0
  4 39  1  0
  4 40  1  0
  5 41  1  6
  8 42  1  0
  8 43  1  0
  8 44  1  0
  9 45  1  0
  9 46  1  0
  9 47  1  0
 10 48  1  1
 11 49  1  0
 11 50  1  0
 12 51  1  0
 12 52  1  0
 14 53  1  0
 14 54  1  0
 14 55  1  0
 15 56  1  6
 16 57  1  0
 16 58  1  0
 17 59  1  0
 19 60  1  1
 20 61  1  0
 20 62  1  0
 21 63  1  0
 21 64  1  0
 22 65  1  1
 23 66  1  0
 25 67  1  0
 25 68  1  0
 25 69  1  0
 26 70  1  0
 26 71  1  0
 26 72  1  0
 28 73  1  0
 28 74  1  0
 28 75  1  0
 29 76  1  0
 29 77  1  0
 30 78  1  0
 30 79  1  0
 32 80  1  0
 32 81  1  0
 32 82  1  0
M  END
>  <meeko>  (1) 
{"is_sidechain": [false], "intermolecular_energy": 2.731, "internal_energy": -0.839}

$$$$
EPH_relaxed_0001_pdb2pqr_Repair_72_r2_0001_out
     RDKit          3D

 82 86  0  0  0  0  0  0  0  0999 V2000
    4.1890   17.5620   -0.6630 C   0  0  0  0  0  0  0  0  0  0  0  0
    2.8280   18.1300   -0.2510 C   0  0  2  0  0  0  0  0  0  0  0  0
    2.8810   18.8230    1.1260 C   0  0  0  0  0  0  0  0  0  0  0  0
    4.2260   18.6680    1.8420 C   0  0  0  0  0  0  0  0  0  0  0  0
    4.1800   19.2230    3.2330 C   0  0  2  0  0  0  0  0  0  0  0  0
    5.1940   20.1940    3.5230 O   0  0  0  0  0  0  0  0  0  0  0  0
    5.2570   18.9690    4.2710 C   0  0  0  0  0  0  0  0  0  0  0  0
    6.4560   18.1290    3.9610 C   0  0  0  0  0  0  0  0  0  0  0  0
    4.9080   19.1270    5.7180 C   0  0  0  0  0  0  0  0  0  0  0  0
    1.7850   17.0190   -0.2340 C   0  0  1  0  0  0  0  0  0  0  0  0
    0.3580   17.5340   -0.5630 C   0  0  0  0  0  0  0  0  0  0  0  0
   -0.3520   16.4090   -1.3580 C   0  0  0  0  0  0  0  0  0  0  0  0
    0.5560   15.1700   -1.1760 C   0  0  1  0  0  0  0  0  0  0  0  0
    0.1740   14.5950    0.2240 C   0  0  0  0  0  0  0  0  0  0  0  0
    0.4680   14.0790   -2.2920 C   0  0  2  0  0  0  0  0  0  0  0  0
   -0.9080   13.4080   -2.4410 C   0  0  0  0  0  0  0  0  0  0  0  0
   -1.1120   12.1800   -1.6170 C   0  0  0  0  0  0  0  0  0  0  0  0
   -0.1390   11.4760   -1.0090 C   0  0  0  0  0  0  0  0  0  0  0  0
    1.3380   11.8430   -1.2020 C   0  0  1  0  0  0  0  0  0  0  0  0
    2.1570   10.5590   -1.4970 C   0  0  0  0  0  0  0  0  0  0  0  0
    1.9580    9.4820   -0.4350 C   0  0  0  0  0  0  0  0  0  0  0  0
    0.4840    9.1020   -0.3140 C   0  0  2  0  0  0  0  0  0  0  0  0
    0.0730    8.4590   -1.5240 O   0  0  0  0  0  0  0  0  0  0  0  0
   -0.4400   10.3170   -0.0260 C   0  0  0  0  0  0  0  0  0  0  0  0
   -0.1970   10.8270    1.4160 C   0  0  0  0  0  0  0  0  0  0  0  0
   -1.9100    9.8190   -0.0680 C   0  0  0  0  0  0  0  0  0  0  0  0
    1.6320   13.0070   -2.2440 C   0  0  1  0  0  0  0  0  0  0  0  0
    1.7530   12.4160   -3.6820 C   0  0  0  0  0  0  0  0  0  0  0  0
    3.0280   13.6540   -1.9110 C   0  0  0  0  0  0  0  0  0  0  0  0
    3.0330   14.8080   -0.8890 C   0  0  0  0  0  0  0  0  0  0  0  0
    1.9700   15.8540   -1.2390 C   0  0  2  0  0  0  0  0  0  0  0  0
    2.3410   16.4660   -2.6320 C   0  0  0  0  0  0  0  0  0  0  0  0
    4.7724   17.3185    0.2372 H   0  0  0  0  0  0  0  0  0  0  0  0
    4.0402   16.6509   -1.2611 H   0  0  0  0  0  0  0  0  0  0  0  0
    4.7321   18.3086   -1.2611 H   0  0  0  0  0  0  0  0  0  0  0  0
    2.5485   18.8915   -0.9940 H   0  0  0  0  0  0  0  0  0  0  0  0
    2.6856   19.8960    0.9825 H   0  0  0  0  0  0  0  0  0  0  0  0
    2.1224   18.3391    1.7588 H   0  0  0  0  0  0  0  0  0  0  0  0
    4.4819   17.5994    1.8928 H   0  0  0  0  0  0  0  0  0  0  0  0
    4.9836   19.2279    1.2741 H   0  0  0  0  0  0  0  0  0  0  0  0
    3.0855   19.1175    3.2647 H   0  0  0  0  0  0  0  0  0  0  0  0
    6.9257   17.7999    4.8996 H   0  0  0  0  0  0  0  0  0  0  0  0
    6.1465   17.2492    3.3777 H   0  0  0  0  0  0  0  0  0  0  0  0
    7.1772   18.7204    3.3777 H   0  0  0  0  0  0  0  0  0  0  0  0
    5.7358   18.7522    6.3379 H   0  0  0  0  0  0  0  0  0  0  0  0
    4.7363   20.1906    5.9397 H   0  0  0  0  0  0  0  0  0  0  0  0
    3.9954   18.5542    5.9397 H   0  0  0  0  0  0  0  0  0  0  0  0
    1.9213   16.6543    0.7948 H   0  0  0  0  0  0  0  0  0  0  0  0
   -0.1916   17.7460    0.3660 H   0  0  0  0  0  0  0  0  0  0  0  0
    0.3994   18.4647   -1.1478 H   0  0  0  0  0  0  0  0  0  0  0  0
   -1.3554   16.2185   -0.9494 H   0  0  0  0  0  0  0  0  0  0  0  0
   -0.4925   16.6713   -2.4170 H   0  0  0  0  0  0  0  0  0  0  0  0
    0.5990   15.2347    1.0115 H   0  0  0  0  0  0  0  0  0  0  0  0
   -0.9212   14.5695    0.3235 H   0  0  0  0  0  0  0  0  0  0  0  0
    0.5750   13.5755    0.3235 H   0  0  0  0  0  0  0  0  0  0  0  0
    0.6141   14.6678   -3.2096 H   0  0  0  0  0  0  0  0  0  0  0  0
   -1.6763   14.1411   -2.1542 H   0  0  0  0  0  0  0  0  0  0  0  0
   -0.9766   13.0849   -3.4902 H   0  0  0  0  0  0  0  0  0  0  0  0
   -2.1445   11.8201   -1.4965 H   0  0  0  0  0  0  0  0  0  0  0  0
    1.6683   12.2854   -0.2506 H   0  0  0  0  0  0  0  0  0  0  0  0
    1.8427   10.1562   -2.4711 H   0  0  0  0  0  0  0  0  0  0  0  0
    3.2219   10.8347   -1.4978 H   0  0  0  0  0  0  0  0  0  0  0  0
    2.5382    8.5899   -0.7135 H   0  0  0  0  0  0  0  0  0  0  0  0
    2.3001    9.8758    0.5334 H   0  0  0  0  0  0  0  0  0  0  0  0
    0.3872    8.4248    0.5474 H   0  0  0  0  0  0  0  0  0  0  0  0
   -0.4170    9.1120   -2.0520 H   0  0  0  0  0  0  0  0  0  0  0  0
   -0.5548   10.0760    2.1357 H   0  0  0  0  0  0  0  0  0  0  0  0
    0.8790   10.9973    1.5683 H   0  0  0  0  0  0  0  0  0  0  0  0
   -0.7426   11.7699    1.5683 H   0  0  0  0  0  0  0  0  0  0  0  0
   -2.2837    9.6924    0.9588 H   0  0  0  0  0  0  0  0  0  0  0  0
   -2.5321   10.5565   -0.5963 H   0  0  0  0  0  0  0  0  0  0  0  0
   -1.9557    8.8552   -0.5963 H   0  0  0  0  0  0  0  0  0  0  0  0
    1.9733   11.3401   -3.6189 H   0  0  0  0  0  0  0  0  0  0  0  0
    0.8056   12.5653   -4.2207 H   0  0  0  0  0  0  0  0  0  0  0  0
    2.5654   12.9256   -4.2207 H   0  0  0  0  0  0  0  0  0  0  0  0
    3.6782   12.8585   -1.5180 H   0  0  0  0  0  0  0  0  0  0  0  0
    3.3693   14.1039   -2.8550 H   0  0  0  0  0  0  0  0  0  0  0  0
    2.8237   14.4031    0.1121 H   0  0  0  0  0  0  0  0  0  0  0  0
    4.0210   15.2910   -0.9098 H   0  0  0  0  0  0  0  0  0  0  0  0
    2.9061   17.3981   -2.4842 H   0  0  0  0  0  0  0  0  0  0  0  0
    2.9568   15.7493   -3.1951 H   0  0  0  0  0  0  0  0  0  0  0  0
    1.4207   16.6805   -3.1951 H   0  0  0  0  0  0  0  0  0  0  0  0
  1  2  1  0
  2  3  1  0
  3  4  1  0
  4  5  1  0
  5  6  1  0
  6  7  1  0
  7  8  1  0
  7  9  1  0
  2 10  1  0
 10 11  1  0
 11 12  1  0
 12 13  1  0
 13 14  1  1
 13 15  1  0
 15 16  1  0
 16 17  1  0
 17 18  2  0
 18 19  1  0
 19 20  1  0
 20 21  1  0
 21 22  1  0
 22 23  1  0
 22 24  1  0
 24 25  1  0
 24 26  1  0
 19 27  1  0
 27 28  1  6
 27 29  1  0
 29 30  1  0
 30 31  1  0
 31 32  1  6
  7  5  1  0
 31 10  1  0
 31 13  1  0
 27 15  1  0
 24 18  1  0
  1 33  1  0
  1 34  1  0
  1 35  1  0
  2 36  1  6
  3 37  1  0
  3 38  1  0
  4 39  1  0
  4 40  1  0
  5 41  1  1
  8 42  1  0
  8 43  1  0
  8 44  1  0
  9 45  1  0
  9 46  1  0
  9 47  1  0
 10 48  1  1
 11 49  1  0
 11 50  1  0
 12 51  1  0
 12 52  1  0
 14 53  1  0
 14 54  1  0
 14 55  1  0
 15 56  1  6
 16 57  1  0
 16 58  1  0
 17 59  1  0
 19 60  1  1
 20 61  1  0
 20 62  1  0
 21 63  1  0
 21 64  1  0
 22 65  1  1
 23 66  1  0
 25 67  1  0
 25 68  1  0
 25 69  1  0
 26 70  1  0
 26 71  1  0
 26 72  1  0
 28 73  1  0
 28 74  1  0
 28 75  1  0
 29 76  1  0
 29 77  1  0
 30 78  1  0
 30 79  1  0
 32 80  1  0
 32 81  1  0
 32 82  1  0
M  END
>  <meeko>  (2) 
{"is_sidechain": [false], "intermolecular_energy": 2.731, "internal_energy": -0.839}

$$$$
EPH_relaxed_0001_pdb2pqr_Repair_72_r2_0001_out
     RDKit          3D

 82 86  0  0  0  0  0  0  0  0999 V2000
    2.4000   17.9740   -2.7020 C   0  0  0  0  0  0  0  0  0  0  0  0
    1.0890   17.6210   -1.9920 C   0  0  2  0  0  0  0  0  0  0  0  0
    1.2240   17.6840   -0.4580 C   0  0  0  0  0  0  0  0  0  0  0  0
    0.9230   19.0660    0.1300 C   0  0  0  0  0  0  0  0  0  0  0  0
   -0.5080   19.1840    0.5610 C   0  0  2  0  0  0  0  0  0  0  0  0
   -1.3980   18.2430   -0.0520 O   0  0  0  0  0  0  0  0  0  0  0  0
   -1.6270   19.6270   -0.3630 C   0  0  0  0  0  0  0  0  0  0  0  0
   -1.3630   19.9810   -1.7930 C   0  0  0  0  0  0  0  0  0  0  0  0
   -2.8780   20.1830    0.2430 C   0  0  0  0  0  0  0  0  0  0  0  0
    0.6270   16.2320   -2.4180 C   0  0  1  0  0  0  0  0  0  0  0  0
    0.6820   16.0290   -3.9550 C   0  0  0  0  0  0  0  0  0  0  0  0
    1.0730   14.5480   -4.1970 C   0  0  0  0  0  0  0  0  0  0  0  0
    0.9050   13.8700   -2.8160 C   0  0  1  0  0  0  0  0  0  0  0  0
   -0.6240   13.5780   -2.6960 C   0  0  0  0  0  0  0  0  0  0  0  0
    1.7590   12.5840   -2.5700 C   0  0  2  0  0  0  0  0  0  0  0  0
    1.4500   11.4050   -3.5090 C   0  0  0  0  0  0  0  0  0  0  0  0
    0.4000   10.4610   -3.0230 C   0  0  0  0  0  0  0  0  0  0  0  0
   -0.0650   10.3910   -1.7620 C   0  0  0  0  0  0  0  0  0  0  0  0
    0.5430   11.2530   -0.6490 C   0  0  1  0  0  0  0  0  0  0  0  0
    0.8010   10.3750    0.6040 C   0  0  0  0  0  0  0  0  0  0  0  0
   -0.4480    9.6280    1.0620 C   0  0  0  0  0  0  0  0  0  0  0  0
   -0.9890    8.7370   -0.0530 C   0  0  2  0  0  0  0  0  0  0  0  0
   -0.0460    7.6910   -0.3060 O   0  0  0  0  0  0  0  0  0  0  0  0
   -1.2770    9.5100   -1.3700 C   0  0  0  0  0  0  0  0  0  0  0  0
   -2.5050   10.4330   -1.1740 C   0  0  0  0  0  0  0  0  0  0  0  0
   -1.6820    8.4740   -2.4540 C   0  0  0  0  0  0  0  0  0  0  0  0
    1.8110   12.1200   -1.0580 C   0  0  1  0  0  0  0  0  0  0  0  0
    3.1100   11.2730   -0.8950 C   0  0  0  0  0  0  0  0  0  0  0  0
    1.9450   13.3340   -0.0640 C   0  0  0  0  0  0  0  0  0  0  0  0
    1.1720   14.6170   -0.4250 C   0  0  0  0  0  0  0  0  0  0  0  0
    1.4280   15.0200   -1.8800 C   0  0  2  0  0  0  0  0  0  0  0  0
    2.9550   15.3410   -2.0270 C   0  0  0  0  0  0  0  0  0  0  0  0
    3.1778   18.1834   -1.9529 H   0  0  0  0  0  0  0  0  0  0  0  0
    2.7152   17.1287   -3.3314 H   0  0  0  0  0  0  0  0  0  0  0  0
    2.2482   18.8633   -3.3314 H   0  0  0  0  0  0  0  0  0  0  0  0
    0.3395   18.3700   -2.2876 H   0  0  0  0  0  0  0  0  0  0  0  0
    0.5236   16.9591   -0.0176 H   0  0  0  0  0  0  0  0  0  0  0  0
    2.2724   17.4536   -0.2177 H   0  0  0  0  0  0  0  0  0  0  0  0
    1.5730   19.2321    1.0018 H   0  0  0  0  0  0  0  0  0  0  0  0
    1.1102   19.8192   -0.6496 H   0  0  0  0  0  0  0  0  0  0  0  0
   -0.2023   19.5195    1.5630 H   0  0  0  0  0  0  0  0  0  0  0  0
   -0.7059   20.8621   -1.8373 H   0  0  0  0  0  0  0  0  0  0  0  0
   -0.8745   19.1336   -2.2963 H   0  0  0  0  0  0  0  0  0  0  0  0
   -2.3145   20.2075   -2.2963 H   0  0  0  0  0  0  0  0  0  0  0  0
   -2.8008   20.1487    1.3397 H   0  0  0  0  0  0  0  0  0  0  0  0
   -3.0114   21.2252   -0.0827 H   0  0  0  0  0  0  0  0  0  0  0  0
   -3.7410   19.5837   -0.0827 H   0  0  0  0  0  0  0  0  0  0  0  0
   -0.3852   16.2345   -1.9873 H   0  0  0  0  0  0  0  0  0  0  0  0
   -0.3018   16.2386   -4.4002 H   0  0  0  0  0  0  0  0  0  0  0  0
    1.4110   16.7106   -4.4176 H   0  0  0  0  0  0  0  0  0  0  0  0
    0.4059   14.0866   -4.9400 H   0  0  0  0  0  0  0  0  0  0  0  0
    2.0948   14.4451   -4.5910 H   0  0  0  0  0  0  0  0  0  0  0  0
   -0.9048   13.5244   -1.6338 H   0  0  0  0  0  0  0  0  0  0  0  0
   -1.1907   14.3841   -3.1848 H   0  0  0  0  0  0  0  0  0  0  0  0
   -0.8538   12.6197   -3.1848 H   0  0  0  0  0  0  0  0  0  0  0  0
    2.7720   12.9199   -2.8364 H   0  0  0  0  0  0  0  0  0  0  0  0
    1.1171   11.8166   -4.4732 H   0  0  0  0  0  0  0  0  0  0  0  0
    2.3783   10.8188   -3.5773 H   0  0  0  0  0  0  0  0  0  0  0  0
   -0.0296    9.7640   -3.7576 H   0  0  0  0  0  0  0  0  0  0  0  0
   -0.2073   12.0232   -0.4169 H   0  0  0  0  0  0  0  0  0  0  0  0
    1.5836    9.6400    0.3645 H   0  0  0  0  0  0  0  0  0  0  0  0
    1.1095   11.0427    1.4219 H   0  0  0  0  0  0  0  0  0  0  0  0
   -0.1956    9.0035    1.9317 H   0  0  0  0  0  0  0  0  0  0  0  0
   -1.2200   10.3646    1.3292 H   0  0  0  0  0  0  0  0  0  0  0  0
   -1.9521    8.3298    0.2887 H   0  0  0  0  0  0  0  0  0  0  0  0
   -0.4880    6.8450   -0.1240 H   0  0  0  0  0  0  0  0  0  0  0  0
   -2.6908   10.5727   -0.0988 H   0  0  0  0  0  0  0  0  0  0  0  0
   -2.3086   11.4089   -1.6420 H   0  0  0  0  0  0  0  0  0  0  0  0
   -3.3878    9.9730   -1.6420 H   0  0  0  0  0  0  0  0  0  0  0  0
   -2.0411    7.5553   -1.9672 H   0  0  0  0  0  0  0  0  0  0  0  0
   -2.4823    8.8935   -3.0813 H   0  0  0  0  0  0  0  0  0  0  0  0
   -0.8093    8.2395   -3.0813 H   0  0  0  0  0  0  0  0  0  0  0  0
    3.3246   11.1330    0.1747 H   0  0  0  0  0  0  0  0  0  0  0  0
    2.9703   10.2919   -1.3724 H   0  0  0  0  0  0  0  0  0  0  0  0
    3.9514   11.7966   -1.3724 H   0  0  0  0  0  0  0  0  0  0  0  0
    1.5899   12.9979    0.9214 H   0  0  0  0  0  0  0  0  0  0  0  0
    3.0070   13.6186   -0.0993 H   0  0  0  0  0  0  0  0  0  0  0  0
    0.0954   14.4400   -0.2847 H   0  0  0  0  0  0  0  0  0  0  0  0
    1.5170   15.4305    0.2302 H   0  0  0  0  0  0  0  0  0  0  0  0
    3.4074   15.4361   -1.0289 H   0  0  0  0  0  0  0  0  0  0  0  0
    3.4494   14.5272   -2.5777 H   0  0  0  0  0  0  0  0  0  0  0  0
    3.0799   16.2850   -2.5777 H   0  0  0  0  0  0  0  0  0  0  0  0
  1  2  1  0
  2  3  1  0
  3  4  1  0
  4  5  1  0
  5  6  1  0
  6  7  1  0
  7  8  1  0
  7  9  1  0
  2 10  1  0
 10 11  1  0
 11 12  1  0
 12 13  1  0
 13 14  1  1
 13 15  1  0
 15 16  1  0
 16 17  1  0
 17 18  2  0
 18 19  1  0
 19 20  1  0
 20 21  1  0
 21 22  1  0
 22 23  1  0
 22 24  1  0
 24 25  1  0
 24 26  1  0
 19 27  1  0
 27 28  1  6
 27 29  1  0
 29 30  1  0
 30 31  1  0
 31 32  1  1
  7  5  1  0
 31 10  1  0
 31 13  1  0
 27 15  1  0
 24 18  1  0
  1 33  1  0
  1 34  1  0
  1 35  1  0
  2 36  1  6
  3 37  1  0
  3 38  1  0
  4 39  1  0
  4 40  1  0
  5 41  1  1
  8 42  1  0
  8 43  1  0
  8 44  1  0
  9 45  1  0
  9 46  1  0
  9 47  1  0
 10 48  1  1
 11 49  1  0
 11 50  1  0
 12 51  1  0
 12 52  1  0
 14 53  1  0
 14 54  1  0
 14 55  1  0
 15 56  1  6
 16 57  1  0
 16 58  1  0
 17 59  1  0
 19 60  1  1
 20 61  1  0
 20 62  1  0
 21 63  1  0
 21 64  1  0
 22 65  1  1
 23 66  1  0
 25 67  1  0
 25 68  1  0
 25 69  1  0
 26 70  1  0
 26 71  1  0
 26 72  1  0
 28 73  1  0
 28 74  1  0
 28 75  1  0
 29 76  1  0
 29 77  1  0
 30 78  1  0
 30 79  1  0
 32 80  1  0
 32 81  1  0
 32 82  1  0
M  END
>  <meeko>  (3) 
{"is_sidechain": [false], "intermolecular_energy": 2.731, "internal_energy": -0.839}

$$$$
EPH_relaxed_0001_pdb2pqr_Repair_72_r2_0001_out
     RDKit          3D

 82 86  0  0  0  0  0  0  0  0999 V2000
    2.1690   18.1440   -2.7170 C   0  0  0  0  0  0  0  0  0  0  0  0
    0.8520   17.7580   -2.0370 C   0  0  2  0  0  0  0  0  0  0  0  0
    0.9420   17.8550   -0.5010 C   0  0  0  0  0  0  0  0  0  0  0  0
    2.3590   18.1170    0.0170 C   0  0  0  0  0  0  0  0  0  0  0  0
    2.3840   19.2220    1.0290 C   0  0  2  0  0  0  0  0  0  0  0  0
    3.4190   20.1930    0.8290 O   0  0  0  0  0  0  0  0  0  0  0  0
    3.5060   19.4130    2.0320 C   0  0  0  0  0  0  0  0  0  0  0  0
    4.6820   18.4870    2.0740 C   0  0  0  0  0  0  0  0  0  0  0  0
    3.2270   20.1940    3.2790 C   0  0  0  0  0  0  0  0  0  0  0  0
    0.4490   16.3470   -2.4470 C   0  0  1  0  0  0  0  0  0  0  0  0
    0.5330   16.1230   -3.9800 C   0  0  0  0  0  0  0  0  0  0  0  0
    0.9840   14.6550   -4.1940 C   0  0  0  0  0  0  0  0  0  0  0  0
    0.8250   13.9920   -2.8060 C   0  0  1  0  0  0  0  0  0  0  0  0
   -0.6930   13.6420   -2.7010 C   0  0  0  0  0  0  0  0  0  0  0  0
    1.7250   12.7440   -2.5290 C   0  0  2  0  0  0  0  0  0  0  0  0
    1.4740   11.5400   -3.4540 C   0  0  0  0  0  0  0  0  0  0  0  0
    0.4550   10.5630   -2.9680 C   0  0  0  0  0  0  0  0  0  0  0  0
   -0.0240   10.4930   -1.7120 C   0  0  0  0  0  0  0  0  0  0  0  0
    0.5360   11.3950   -0.6040 C   0  0  1  0  0  0  0  0  0  0  0  0
    0.8110   10.5460    0.6650 C   0  0  0  0  0  0  0  0  0  0  0  0
   -0.4140    9.7570    1.1180 C   0  0  0  0  0  0  0  0  0  0  0  0
   -0.9050    8.8290    0.0090 C   0  0  2  0  0  0  0  0  0  0  0  0
    0.0810    7.8170   -0.2160 O   0  0  0  0  0  0  0  0  0  0  0  0
   -1.2060    9.5710   -1.3230 C   0  0  0  0  0  0  0  0  0  0  0  0
   -2.4710   10.4490   -1.1560 C   0  0  0  0  0  0  0  0  0  0  0  0
   -1.5560    8.5050   -2.3950 C   0  0  0  0  0  0  0  0  0  0  0  0
    1.7740   12.3050   -1.0100 C   0  0  1  0  0  0  0  0  0  0  0  0
    3.1030   11.5110   -0.8180 C   0  0  0  0  0  0  0  0  0  0  0  0
    1.8480   13.5370   -0.0330 C   0  0  0  0  0  0  0  0  0  0  0  0
    1.0310   14.7830   -0.4230 C   0  0  0  0  0  0  0  0  0  0  0  0
    1.2900   15.1740   -1.8810 C   0  0  2  0  0  0  0  0  0  0  0  0
    2.8050   15.5530   -2.0130 C   0  0  0  0  0  0  0  0  0  0  0  0
    2.9261   18.3659   -1.9505 H   0  0  0  0  0  0  0  0  0  0  0  0
    2.5160   17.3098   -3.3444 H   0  0  0  0  0  0  0  0  0  0  0  0
    2.0107   19.0335   -3.3444 H   0  0  0  0  0  0  0  0  0  0  0  0
    0.0859   18.4742   -2.3689 H   0  0  0  0  0  0  0  0  0  0  0  0
    0.2923   18.6771   -0.1662 H   0  0  0  0  0  0  0  0  0  0  0  0
    0.6274   16.8809   -0.0983 H   0  0  0  0  0  0  0  0  0  0  0  0
    2.7437   17.1979    0.4832 H   0  0  0  0  0  0  0  0  0  0  0  0
    2.9853   18.4187   -0.8355 H   0  0  0  0  0  0  0  0  0  0  0  0
    1.2913   19.1721    1.1452 H   0  0  0  0  0  0  0  0  0  0  0  0
    4.9471   18.2782    3.1210 H   0  0  0  0  0  0  0  0  0  0  0  0
    4.4258   17.5456    1.5659 H   0  0  0  0  0  0  0  0  0  0  0  0
    5.5370   18.9569    1.5659 H   0  0  0  0  0  0  0  0  0  0  0  0
    3.4492   19.5720    4.1586 H   0  0  0  0  0  0  0  0  0  0  0  0
    3.8592   21.0940    3.2972 H   0  0  0  0  0  0  0  0  0  0  0  0
    2.1676   20.4897    3.2972 H   0  0  0  0  0  0  0  0  0  0  0  0
   -0.5681   16.3174   -2.0290 H   0  0  0  0  0  0  0  0  0  0  0  0
   -0.4519   16.2877   -4.4413 H   0  0  0  0  0  0  0  0  0  0  0  0
    1.2417   16.8252   -4.4433 H   0  0  0  0  0  0  0  0  0  0  0  0
    0.3448   14.1569   -4.9378 H   0  0  0  0  0  0  0  0  0  0  0  0
    2.0141   14.5861   -4.5737 H   0  0  0  0  0  0  0  0  0  0  0  0
   -0.9815   13.5755   -1.6416 H   0  0  0  0  0  0  0  0  0  0  0  0
   -1.2853   14.4272   -3.1937 H   0  0  0  0  0  0  0  0  0  0  0  0
   -0.8817   12.6768   -3.1937 H   0  0  0  0  0  0  0  0  0  0  0  0
    2.7280   13.1148   -2.7869 H   0  0  0  0  0  0  0  0  0  0  0  0
    1.1385   11.9244   -4.4285 H   0  0  0  0  0  0  0  0  0  0  0  0
    2.4250   10.9893   -3.5009 H   0  0  0  0  0  0  0  0  0  0  0  0
    0.0626    9.8395   -3.6978 H   0  0  0  0  0  0  0  0  0  0  0  0
   -0.2462   12.1390   -0.3930 H   0  0  0  0  0  0  0  0  0  0  0  0
    1.6249    9.8389    0.4466 H   0  0  0  0  0  0  0  0  0  0  0  0
    1.0820   11.2371    1.4768 H   0  0  0  0  0  0  0  0  0  0  0  0
   -0.1490    9.1555    2.0000 H   0  0  0  0  0  0  0  0  0  0  0  0
   -1.2178   10.4665    1.3642 H   0  0  0  0  0  0  0  0  0  0  0  0
   -1.8559    8.3893    0.3443 H   0  0  0  0  0  0  0  0  0  0  0  0
    0.2450    7.7730   -1.1730 H   0  0  0  0  0  0  0  0  0  0  0  0
   -2.6786   10.5931   -0.0854 H   0  0  0  0  0  0  0  0  0  0  0  0
   -2.3043   11.4266   -1.6320 H   0  0  0  0  0  0  0  0  0  0  0  0
   -3.3285    9.9509   -1.6320 H   0  0  0  0  0  0  0  0  0  0  0  0
   -1.8622    7.5724   -1.8984 H   0  0  0  0  0  0  0  0  0  0  0  0
   -2.3803    8.8736   -3.0232 H   0  0  0  0  0  0  0  0  0  0  0  0
   -0.6736    8.3133   -3.0232 H   0  0  0  0  0  0  0  0  0  0  0  0
    3.3058   11.3898    0.2563 H   0  0  0  0  0  0  0  0  0  0  0  0
    3.0095   10.5206   -1.2875 H   0  0  0  0  0  0  0  0  0  0  0  0
    3.9308   12.0627   -1.2875 H   0  0  0  0  0  0  0  0  0  0  0  0
    1.4933   13.2017    0.9528 H   0  0  0  0  0  0  0  0  0  0  0  0
    2.8985   13.8621   -0.0590 H   0  0  0  0  0  0  0  0  0  0  0  0
   -0.0396   14.5664   -0.2933 H   0  0  0  0  0  0  0  0  0  0  0  0
    1.3358   15.6189    0.2238 H   0  0  0  0  0  0  0  0  0  0  0  0
    3.2442   15.6629   -1.0105 H   0  0  0  0  0  0  0  0  0  0  0  0
    3.3350   14.7598   -2.5606 H   0  0  0  0  0  0  0  0  0  0  0  0
    2.8991   16.5024   -2.5606 H   0  0  0  0  0  0  0  0  0  0  0  0
  1  2  1  0
  2  3  1  0
  3  4  1  0
  4  5  1  0
  5  6  1  0
  6  7  1  0
  7  8  1  0
  7  9  1  0
  2 10  1  0
 10 11  1  0
 11 12  1  0
 12 13  1  0
 13 14  1  1
 13 15  1  0
 15 16  1  0
 16 17  1  0
 17 18  2  0
 18 19  1  0
 19 20  1  0
 20 21  1  0
 21 22  1  0
 22 23  1  0
 22 24  1  0
 24 25  1  0
 24 26  1  0
 19 27  1  0
 27 28  1  6
 27 29  1  0
 29 30  1  0
 30 31  1  0
 31 32  1  1
  7  5  1  0
 31 10  1  0
 31 13  1  0
 27 15  1  0
 24 18  1  0
  1 33  1  0
  1 34  1  0
  1 35  1  0
  2 36  1  6
  3 37  1  0
  3 38  1  0
  4 39  1  0
  4 40  1  0
  5 41  1  1
  8 42  1  0
  8 43  1  0
  8 44  1  0
  9 45  1  0
  9 46  1  0
  9 47  1  0
 10 48  1  1
 11 49  1  0
 11 50  1  0
 12 51  1  0
 12 52  1  0
 14 53  1  0
 14 54  1  0
 14 55  1  0
 15 56  1  6
 16 57  1  0
 16 58  1  0
 17 59  1  0
 19 60  1  1
 20 61  1  0
 20 62  1  0
 21 63  1  0
 21 64  1  0
 22 65  1  1
 23 66  1  0
 25 67  1  0
 25 68  1  0
 25 69  1  0
 26 70  1  0
 26 71  1  0
 26 72  1  0
 28 73  1  0
 28 74  1  0
 28 75  1  0
 29 76  1  0
 29 77  1  0
 30 78  1  0
 30 79  1  0
 32 80  1  0
 32 81  1  0
 32 82  1  0
M  END
>  <meeko>  (4) 
{"is_sidechain": [false], "intermolecular_energy": 2.731, "internal_energy": -0.839}

$$$$
EPH_relaxed_0001_pdb2pqr_Repair_72_r2_0001_out
     RDKit          3D

 82 86  0  0  0  0  0  0  0  0999 V2000
   -3.4070    9.3010    0.5400 C   0  0  0  0  0  0  0  0  0  0  0  0
   -2.5840    9.6700   -0.6970 C   0  0  2  0  0  0  0  0  0  0  0  0
   -1.9140    8.4390   -1.3380 C   0  0  0  0  0  0  0  0  0  0  0  0
   -2.8310    7.6650   -2.2890 C   0  0  0  0  0  0  0  0  0  0  0  0
   -4.2680    7.7640   -1.8760 C   0  0  2  0  0  0  0  0  0  0  0  0
   -4.8120    6.5650   -1.3090 O   0  0  0  0  0  0  0  0  0  0  0  0
   -5.3880    6.9960   -2.5530 C   0  0  0  0  0  0  0  0  0  0  0  0
   -5.1190    6.0720   -3.7000 C   0  0  0  0  0  0  0  0  0  0  0  0
   -6.7880    7.5090   -2.4230 C   0  0  0  0  0  0  0  0  0  0  0  0
   -1.5270   10.7050   -0.3280 C   0  0  1  0  0  0  0  0  0  0  0  0
   -0.4320   10.1310    0.6120 C   0  0  0  0  0  0  0  0  0  0  0  0
    0.8990   10.8230    0.2210 C   0  0  0  0  0  0  0  0  0  0  0  0
    0.4760   11.9990   -0.6900 C   0  0  1  0  0  0  0  0  0  0  0  0
    0.0320   13.1270    0.2920 C   0  0  0  0  0  0  0  0  0  0  0  0
    1.5500   12.5070   -1.7060 C   0  0  2  0  0  0  0  0  0  0  0  0
    2.8280   13.0810   -1.0720 C   0  0  0  0  0  0  0  0  0  0  0  0
    2.8010   14.5480   -0.7970 C   0  0  0  0  0  0  0  0  0  0  0  0
    1.9120   15.4220   -1.3040 C   0  0  0  0  0  0  0  0  0  0  0  0
    0.8620   14.9730   -2.3280 C   0  0  1  0  0  0  0  0  0  0  0  0
    0.8160   15.9870   -3.5010 C   0  0  0  0  0  0  0  0  0  0  0  0
    0.5930   17.4200   -3.0280 C   0  0  0  0  0  0  0  0  0  0  0  0
    1.6900   17.8500   -2.0560 C   0  0  2  0  0  0  0  0  0  0  0  0
    2.9310   17.9200   -2.7640 O   0  0  0  0  0  0  0  0  0  0  0  0
    1.8360   16.8970   -0.8370 C   0  0  0  0  0  0  0  0  0  0  0  0
    0.6070   17.0490    0.0930 C   0  0  0  0  0  0  0  0  0  0  0  0
    3.0660   17.3630   -0.0120 C   0  0  0  0  0  0  0  0  0  0  0  0
    0.9790   13.4680   -2.8260 C   0  0  1  0  0  0  0  0  0  0  0  0
    1.9640   13.3820   -4.0320 C   0  0  0  0  0  0  0  0  0  0  0  0
   -0.4230   12.9940   -3.3640 C   0  0  0  0  0  0  0  0  0  0  0  0
   -1.3950   12.3910   -2.3320 C   0  0  0  0  0  0  0  0  0  0  0  0
   -0.7000   11.3210   -1.4840 C   0  0  2  0  0  0  0  0  0  0  0  0
   -0.2620   10.1620   -2.4420 C   0  0  0  0  0  0  0  0  0  0  0  0
   -2.8395    9.5555    1.4473 H   0  0  0  0  0  0  0  0  0  0  0  0
   -4.3539    9.8607    0.5308 H   0  0  0  0  0  0  0  0  0  0  0  0
   -3.6190    8.2217    0.5308 H   0  0  0  0  0  0  0  0  0  0  0  0
   -3.2759   10.0930   -1.4402 H   0  0  0  0  0  0  0  0  0  0  0  0
   -1.0335    8.7779   -1.9036 H   0  0  0  0  0  0  0  0  0  0  0  0
   -1.6485    7.7544   -0.5190 H   0  0  0  0  0  0  0  0  0  0  0  0
   -2.7223    8.0770   -3.3031 H   0  0  0  0  0  0  0  0  0  0  0  0
   -2.5383    6.6050   -2.2608 H   0  0  0  0  0  0  0  0  0  0  0  0
   -4.1481    8.8292   -1.6293 H   0  0  0  0  0  0  0  0  0  0  0  0
   -4.8310    5.0829   -3.3143 H   0  0  0  0  0  0  0  0  0  0  0  0
   -6.0265    5.9761   -4.3142 H   0  0  0  0  0  0  0  0  0  0  0  0
   -4.3018    6.4782   -4.3142 H   0  0  0  0  0  0  0  0  0  0  0  0
   -7.0464    7.6037   -1.3580 H   0  0  0  0  0  0  0  0  0  0  0  0
   -6.8643    8.4935   -2.9077 H   0  0  0  0  0  0  0  0  0  0  0  0
   -7.4823    6.8069   -2.9077 H   0  0  0  0  0  0  0  0  0  0  0  0
   -2.1713   11.4734    0.1242 H   0  0  0  0  0  0  0  0  0  0  0  0
   -0.6796   10.3509    1.6610 H   0  0  0  0  0  0  0  0  0  0  0  0
   -0.3550    9.0386    0.5086 H   0  0  0  0  0  0  0  0  0  0  0  0
    1.4212   11.1934    1.1155 H   0  0  0  0  0  0  0  0  0  0  0  0
    1.5940   10.1350   -0.2826 H   0  0  0  0  0  0  0  0  0  0  0  0
    0.1667   12.7847    1.3287 H   0  0  0  0  0  0  0  0  0  0  0  0
    0.6438   14.0248    0.1199 H   0  0  0  0  0  0  0  0  0  0  0  0
   -1.0276   13.3669    0.1199 H   0  0  0  0  0  0  0  0  0  0  0  0
    1.8572   11.5779   -2.2083 H   0  0  0  0  0  0  0  0  0  0  0  0
    2.9978   12.5597   -0.1184 H   0  0  0  0  0  0  0  0  0  0  0  0
    3.6295   12.9247   -1.8090 H   0  0  0  0  0  0  0  0  0  0  0  0
    3.5728   14.9484   -0.1232 H   0  0  0  0  0  0  0  0  0  0  0  0
   -0.1012   14.9735   -1.7967 H   0  0  0  0  0  0  0  0  0  0  0  0
    1.7708   15.9400   -4.0452 H   0  0  0  0  0  0  0  0  0  0  0  0
   -0.0319   15.7128   -4.1459 H   0  0  0  0  0  0  0  0  0  0  0  0
    0.5998   18.0919   -3.8989 H   0  0  0  0  0  0  0  0  0  0  0  0
   -0.3760   17.4724   -2.5099 H   0  0  0  0  0  0  0  0  0  0  0  0
    1.4071   18.8335   -1.6525 H   0  0  0  0  0  0  0  0  0  0  0  0
    2.7260   18.0070   -3.7100 H   0  0  0  0  0  0  0  0  0  0  0  0
    0.9341   17.0085    1.1425 H   0  0  0  0  0  0  0  0  0  0  0  0
    0.1172   18.0146   -0.1015 H   0  0  0  0  0  0  0  0  0  0  0  0
   -0.1033   16.2319   -0.1015 H   0  0  0  0  0  0  0  0  0  0  0  0
    2.8412   17.2778    1.0614 H   0  0  0  0  0  0  0  0  0  0  0  0
    3.9323   16.7308   -0.2565 H   0  0  0  0  0  0  0  0  0  0  0  0
    3.2959   18.4106   -0.2565 H   0  0  0  0  0  0  0  0  0  0  0  0
    2.9946   13.2920   -3.6580 H   0  0  0  0  0  0  0  0  0  0  0  0
    1.7180   12.5019   -4.6443 H   0  0  0  0  0  0  0  0  0  0  0  0
    1.8742   14.2914   -4.6443 H   0  0  0  0  0  0  0  0  0  0  0  0
   -0.9176   13.8657   -3.8174 H   0  0  0  0  0  0  0  0  0  0  0  0
   -0.2010   12.1746   -4.0635 H   0  0  0  0  0  0  0  0  0  0  0  0
   -1.7612   13.1913   -1.6721 H   0  0  0  0  0  0  0  0  0  0  0  0
   -2.2321   11.9227   -2.8705 H   0  0  0  0  0  0  0  0  0  0  0  0
    0.0648    9.2973   -1.8458 H   0  0  0  0  0  0  0  0  0  0  0  0
   -1.1117    9.8699   -3.0765 H   0  0  0  0  0  0  0  0  0  0  0  0
    0.5686   10.5049   -3.0765 H   0  0  0  0  0  0  0  0  0  0  0  0
  1  2  1  0
  2  3  1  0
  3  4  1  0
  4  5  1  0
  5  6  1  0
  6  7  1  0
  7  8  1  0
  7  9  1  0
  2 10  1  0
 10 11  1  0
 11 12  1  0
 12 13  1  0
 13 14  1  1
 13 15  1  0
 15 16  1  0
 16 17  1  0
 17 18  2  0
 18 19  1  0
 19 20  1  0
 20 21  1  0
 21 22  1  0
 22 23  1  0
 22 24  1  0
 24 25  1  0
 24 26  1  0
 19 27  1  0
 27 28  1  6
 27 29  1  0
 29 30  1  0
 30 31  1  0
 31 32  1  6
  7  5  1  0
 31 10  1  0
 31 13  1  0
 27 15  1  0
 24 18  1  0
  1 33  1  0
  1 34  1  0
  1 35  1  0
  2 36  1  6
  3 37  1  0
  3 38  1  0
  4 39  1  0
  4 40  1  0
  5 41  1  1
  8 42  1  0
  8 43  1  0
  8 44  1  0
  9 45  1  0
  9 46  1  0
  9 47  1  0
 10 48  1  1
 11 49  1  0
 11 50  1  0
 12 51  1  0
 12 52  1  0
 14 53  1  0
 14 54  1  0
 14 55  1  0
 15 56  1  6
 16 57  1  0
 16 58  1  0
 17 59  1  0
 19 60  1  1
 20 61  1  0
 20 62  1  0
 21 63  1  0
 21 64  1  0
 22 65  1  1
 23 66  1  0
 25 67  1  0
 25 68  1  0
 25 69  1  0
 26 70  1  0
 26 71  1  0
 26 72  1  0
 28 73  1  0
 28 74  1  0
 28 75  1  0
 29 76  1  0
 29 77  1  0
 30 78  1  0
 30 79  1  0
 32 80  1  0
 32 81  1  0
 32 82  1  0
M  END
>  <meeko>  (5) 
{"is_sidechain": [false], "intermolecular_energy": 2.731, "internal_energy": -0.839}

$$$$
EPH_relaxed_0001_pdb2pqr_Repair_72_r2_0001_out
     RDKit          3D

 82 86  0  0  0  0  0  0  0  0999 V2000
    3.5690   17.8240    0.6420 C   0  0  0  0  0  0  0  0  0  0  0  0
    2.6900   18.1180   -0.5770 C   0  0  2  0  0  0  0  0  0  0  0  0
    1.9890   19.4870   -0.4720 C   0  0  0  0  0  0  0  0  0  0  0  0
    1.1140   19.6360    0.7760 C   0  0  0  0  0  0  0  0  0  0  0  0
   -0.2360   20.1940    0.4420 C   0  0  2  0  0  0  0  0  0  0  0  0
   -1.1690   20.1940    1.5300 O   0  0  0  0  0  0  0  0  0  0  0  0
   -1.5020   19.3580    0.4110 C   0  0  0  0  0  0  0  0  0  0  0  0
   -1.4780   17.8930    0.7170 C   0  0  0  0  0  0  0  0  0  0  0  0
   -2.6670   19.8540   -0.3870 C   0  0  0  0  0  0  0  0  0  0  0  0
    1.6530   17.0140   -0.7490 C   0  0  1  0  0  0  0  0  0  0  0  0
    0.4410   17.4610   -1.6090 C   0  0  0  0  0  0  0  0  0  0  0  0
   -0.0120   16.2210   -2.4220 C   0  0  0  0  0  0  0  0  0  0  0  0
    0.7280   15.0320   -1.7650 C   0  0  1  0  0  0  0  0  0  0  0  0
   -0.1230   14.6760   -0.5060 C   0  0  0  0  0  0  0  0  0  0  0  0
    0.9690   13.7820   -2.6720 C   0  0  2  0  0  0  0  0  0  0  0  0
   -0.3070   13.0850   -3.1740 C   0  0  0  0  0  0  0  0  0  0  0  0
   -0.8270   11.9960   -2.2950 C   0  0  0  0  0  0  0  0  0  0  0  0
   -0.1440   11.4020   -1.2990 C   0  0  0  0  0  0  0  0  0  0  0  0
    1.3270   11.7480   -1.0370 C   0  0  1  0  0  0  0  0  0  0  0  0
    2.1410   10.4400   -0.8480 C   0  0  0  0  0  0  0  0  0  0  0  0
    1.5530    9.5370    0.2320 C   0  0  0  0  0  0  0  0  0  0  0  0
    0.1080    9.1680   -0.0930 C   0  0  2  0  0  0  0  0  0  0  0  0
    0.0950    8.3440   -1.2630 O   0  0  0  0  0  0  0  0  0  0  0  0
   -0.8060   10.4060   -0.3150 C   0  0  0  0  0  0  0  0  0  0  0  0
   -1.0340   11.1330    1.0330 C   0  0  0  0  0  0  0  0  0  0  0  0
   -2.1980    9.8950   -0.7740 C   0  0  0  0  0  0  0  0  0  0  0  0
    2.0020   12.7400   -2.0790 C   0  0  1  0  0  0  0  0  0  0  0  0
    2.5690   11.9370   -3.2890 C   0  0  0  0  0  0  0  0  0  0  0  0
    3.2350   13.4430   -1.3960 C   0  0  0  0  0  0  0  0  0  0  0  0
    2.9500   14.7390   -0.6140 C   0  0  0  0  0  0  0  0  0  0  0  0
    2.1110   15.7100   -1.4490 C   0  0  2  0  0  0  0  0  0  0  0  0
    2.9510   16.1050   -2.7120 C   0  0  0  0  0  0  0  0  0  0  0  0
    2.9965   18.0155    1.5616 H   0  0  0  0  0  0  0  0  0  0  0  0
    3.8860   16.7709    0.6200 H   0  0  0  0  0  0  0  0  0  0  0  0
    4.4558   18.4744    0.6200 H   0  0  0  0  0  0  0  0  0  0  0  0
    3.3478   18.1510   -1.4580 H   0  0  0  0  0  0  0  0  0  0  0  0
    2.7600   20.2713   -0.4514 H   0  0  0  0  0  0  0  0  0  0  0  0
    1.3238   19.5755   -1.3436 H   0  0  0  0  0  0  0  0  0  0  0  0
    0.9861   18.6478    1.2419 H   0  0  0  0  0  0  0  0  0  0  0  0
    1.6133   20.3341    1.4640 H   0  0  0  0  0  0  0  0  0  0  0  0
    0.2056   20.8918   -0.2847 H   0  0  0  0  0  0  0  0  0  0  0  0
   -1.4756   17.7461    1.8071 H   0  0  0  0  0  0  0  0  0  0  0  0
   -2.3684   17.4134    0.2844 H   0  0  0  0  0  0  0  0  0  0  0  0
   -0.5724   17.4428    0.2844 H   0  0  0  0  0  0  0  0  0  0  0  0
   -3.4612   20.1921    0.2949 H   0  0  0  0  0  0  0  0  0  0  0  0
   -2.3462   20.6936   -1.0212 H   0  0  0  0  0  0  0  0  0  0  0  0
   -3.0499   19.0408   -1.0212 H   0  0  0  0  0  0  0  0  0  0  0  0
    1.4224   16.8122    0.3075 H   0  0  0  0  0  0  0  0  0  0  0  0
   -0.3766   17.8078   -0.9600 H   0  0  0  0  0  0  0  0  0  0  0  0
    0.7148   18.2920   -2.2757 H   0  0  0  0  0  0  0  0  0  0  0  0
   -1.1015   16.0872   -2.3513 H   0  0  0  0  0  0  0  0  0  0  0  0
    0.2204   16.3166   -3.4929 H   0  0  0  0  0  0  0  0  0  0  0  0
    0.4488   14.9152    0.4027 H   0  0  0  0  0  0  0  0  0  0  0  0
   -1.0554   15.2595   -0.5167 H   0  0  0  0  0  0  0  0  0  0  0  0
   -0.3622   13.6024   -0.5167 H   0  0  0  0  0  0  0  0  0  0  0  0
    1.4383   14.2241   -3.5632 H   0  0  0  0  0  0  0  0  0  0  0  0
   -1.0941   13.8471   -3.2727 H   0  0  0  0  0  0  0  0  0  0  0  0
   -0.0368   12.6046   -4.1260 H   0  0  0  0  0  0  0  0  0  0  0  0
   -1.8552   11.6499   -2.4768 H   0  0  0  0  0  0  0  0  0  0  0  0
    1.3401   12.3344   -0.1064 H   0  0  0  0  0  0  0  0  0  0  0  0
    2.1512    9.8901   -1.8006 H   0  0  0  0  0  0  0  0  0  0  0  0
    3.1566   10.7209   -0.5324 H   0  0  0  0  0  0  0  0  0  0  0  0
    2.1531    8.6175    0.2986 H   0  0  0  0  0  0  0  0  0  0  0  0
    1.5705   10.0777    1.1897 H   0  0  0  0  0  0  0  0  0  0  0  0
   -0.2987    8.6304    0.7762 H   0  0  0  0  0  0  0  0  0  0  0  0
    0.9170    7.8240   -1.2660 H   0  0  0  0  0  0  0  0  0  0  0  0
   -0.8178   10.4437    1.8625 H   0  0  0  0  0  0  0  0  0  0  0  0
   -0.3661   12.0047    1.0971 H   0  0  0  0  0  0  0  0  0  0  0  0
   -2.0801   11.4671    1.0971 H   0  0  0  0  0  0  0  0  0  0  0  0
   -2.8147    9.6686    0.1083 H   0  0  0  0  0  0  0  0  0  0  0  0
   -2.6924   10.6703   -1.3778 H   0  0  0  0  0  0  0  0  0  0  0  0
   -2.0734    8.9840   -1.3778 H   0  0  0  0  0  0  0  0  0  0  0  0
    3.1666   11.0906   -2.9197 H   0  0  0  0  0  0  0  0  0  0  0  0
    1.7365   11.5589   -3.9006 H   0  0  0  0  0  0  0  0  0  0  0  0
    3.2039   12.5950   -3.9006 H   0  0  0  0  0  0  0  0  0  0  0  0
    3.6824   12.7229   -0.6950 H   0  0  0  0  0  0  0  0  0  0  0  0
    3.8899   13.7459   -2.2263 H   0  0  0  0  0  0  0  0  0  0  0  0
    2.4023   14.4904    0.3070 H   0  0  0  0  0  0  0  0  0  0  0  0
    3.9089   15.2215   -0.3736 H   0  0  0  0  0  0  0  0  0  0  0  0
    3.9037   16.5530   -2.3933 H   0  0  0  0  0  0  0  0  0  0  0  0
    3.1516   15.2068   -3.3145 H   0  0  0  0  0  0  0  0  0  0  0  0
    2.3872   16.8324   -3.3145 H   0  0  0  0  0  0  0  0  0  0  0  0
  1  2  1  0
  2  3  1  0
  3  4  1  0
  4  5  1  0
  5  6  1  0
  6  7  1  0
  7  8  1  0
  7  9  1  0
  2 10  1  0
 10 11  1  0
 11 12  1  0
 12 13  1  0
 13 14  1  1
 13 15  1  0
 15 16  1  0
 16 17  1  0
 17 18  2  0
 18 19  1  0
 19 20  1  0
 20 21  1  0
 21 22  1  0
 22 23  1  0
 22 24  1  0
 24 25  1  0
 24 26  1  0
 19 27  1  0
 27 28  1  6
 27 29  1  0
 29 30  1  0
 30 31  1  0
 31 32  1  6
  7  5  1  0
 31 10  1  0
 31 13  1  0
 27 15  1  0
 24 18  1  0
  1 33  1  0
  1 34  1  0
  1 35  1  0
  2 36  1  6
  3 37  1  0
  3 38  1  0
  4 39  1  0
  4 40  1  0
  5 41  1  6
  8 42  1  0
  8 43  1  0
  8 44  1  0
  9 45  1  0
  9 46  1  0
  9 47  1  0
 10 48  1  1
 11 49  1  0
 11 50  1  0
 12 51  1  0
 12 52  1  0
 14 53  1  0
 14 54  1  0
 14 55  1  0
 15 56  1  6
 16 57  1  0
 16 58  1  0
 17 59  1  0
 19 60  1  1
 20 61  1  0
 20 62  1  0
 21 63  1  0
 21 64  1  0
 22 65  1  1
 23 66  1  0
 25 67  1  0
 25 68  1  0
 25 69  1  0
 26 70  1  0
 26 71  1  0
 26 72  1  0
 28 73  1  0
 28 74  1  0
 28 75  1  0
 29 76  1  0
 29 77  1  0
 30 78  1  0
 30 79  1  0
 32 80  1  0
 32 81  1  0
 32 82  1  0
M  END
>  <meeko>  (6) 
{"is_sidechain": [false], "intermolecular_energy": 2.731, "internal_energy": -0.839}

$$$$
EPH_relaxed_0001_pdb2pqr_Repair_72_r2_0001_out
     RDKit          3D

 82 86  0  0  0  0  0  0  0  0999 V2000
   -5.1750    5.8230   -1.8180 C   0  0  0  0  0  0  0  0  0  0  0  0
   -5.4790    7.3240   -1.8350 C   0  0  2  0  0  0  0  0  0  0  0  0
   -5.2450    7.9800   -0.4600 C   0  0  0  0  0  0  0  0  0  0  0  0
   -4.2110    9.1090   -0.4830 C   0  0  0  0  0  0  0  0  0  0  0  0
   -2.8370    8.5950   -0.7910 C   0  0  2  0  0  0  0  0  0  0  0  0
   -1.8400    8.9340    0.1810 O   0  0  0  0  0  0  0  0  0  0  0  0
   -1.6640    9.4960   -1.1290 C   0  0  0  0  0  0  0  0  0  0  0  0
   -1.8120   10.9850   -1.1780 C   0  0  0  0  0  0  0  0  0  0  0  0
   -0.5100    8.9150   -1.8850 C   0  0  0  0  0  0  0  0  0  0  0  0
   -6.9150    7.5590   -2.2870 C   0  0  1  0  0  0  0  0  0  0  0  0
   -7.2350    6.8710   -3.6420 C   0  0  0  0  0  0  0  0  0  0  0  0
   -8.7120    6.4040   -3.5680 C   0  0  0  0  0  0  0  0  0  0  0  0
   -9.2860    7.1210   -2.3240 C   0  0  1  0  0  0  0  0  0  0  0  0
   -9.6350    8.5610   -2.8170 C   0  0  0  0  0  0  0  0  0  0  0  0
  -10.5100    6.4350   -1.6350 C   0  0  2  0  0  0  0  0  0  0  0  0
  -11.7710    6.3190   -2.5090 C   0  0  0  0  0  0  0  0  0  0  0  0
  -12.7200    7.4680   -2.4150 C   0  0  0  0  0  0  0  0  0  0  0  0
  -12.7130    8.4120   -1.4560 C   0  0  0  0  0  0  0  0  0  0  0  0
  -11.7400    8.3250   -0.2730 C   0  0  1  0  0  0  0  0  0  0  0  0
  -12.5050    8.6010    1.0480 C   0  0  0  0  0  0  0  0  0  0  0  0
  -13.2690    9.9210    1.0170 C   0  0  0  0  0  0  0  0  0  0  0  0
  -14.2680    9.9460   -0.1370 C   0  0  2  0  0  0  0  0  0  0  0  0
  -15.2870    8.9740    0.1140 O   0  0  0  0  0  0  0  0  0  0  0  0
  -13.6130    9.6710   -1.5200 C   0  0  0  0  0  0  0  0  0  0  0  0
  -12.7320   10.8780   -1.9280 C   0  0  0  0  0  0  0  0  0  0  0  0
  -14.7470    9.5840   -2.5770 C   0  0  0  0  0  0  0  0  0  0  0  0
  -10.8520    7.0090   -0.2000 C   0  0  1  0  0  0  0  0  0  0  0  0
  -11.6260    5.8860    0.5560 C   0  0  0  0  0  0  0  0  0  0  0  0
   -9.5600    7.3070    0.6480 C   0  0  0  0  0  0  0  0  0  0  0  0
   -8.3440    7.8720   -0.1110 C   0  0  0  0  0  0  0  0  0  0  0  0
   -8.0450    7.0410   -1.3630 C   0  0  2  0  0  0  0  0  0  0  0  0
   -7.6700    5.5930   -0.8970 C   0  0  0  0  0  0  0  0  0  0  0  0
   -5.1045    5.4749   -0.7769 H   0  0  0  0  0  0  0  0  0  0  0  0
   -5.9814    5.2797   -2.3324 H   0  0  0  0  0  0  0  0  0  0  0  0
   -4.2208    5.6363   -2.3324 H   0  0  0  0  0  0  0  0  0  0  0  0
   -4.7841    7.7936   -2.5468 H   0  0  0  0  0  0  0  0  0  0  0  0
   -6.2010    8.3922   -0.1050 H   0  0  0  0  0  0  0  0  0  0  0  0
   -4.8512    7.1979    0.2058 H   0  0  0  0  0  0  0  0  0  0  0  0
   -4.4988    9.8406   -1.2523 H   0  0  0  0  0  0  0  0  0  0  0  0
   -4.1882    9.5740    0.5136 H   0  0  0  0  0  0  0  0  0  0  0  0
   -3.2543    7.7083   -1.2905 H   0  0  0  0  0  0  0  0  0  0  0  0
   -1.8516   11.3834   -0.1535 H   0  0  0  0  0  0  0  0  0  0  0  0
   -0.9528   11.4216   -1.7083 H   0  0  0  0  0  0  0  0  0  0  0  0
   -2.7403   11.2440   -1.7083 H   0  0  0  0  0  0  0  0  0  0  0  0
    0.2405    8.5372   -1.1751 H   0  0  0  0  0  0  0  0  0  0  0  0
   -0.8651    8.0882   -2.5177 H   0  0  0  0  0  0  0  0  0  0  0  0
   -0.0574    9.6927   -2.5177 H   0  0  0  0  0  0  0  0  0  0  0  0
   -6.9231    8.6587   -2.3114 H   0  0  0  0  0  0  0  0  0  0  0  0
   -7.1040    7.5841   -4.4693 H   0  0  0  0  0  0  0  0  0  0  0  0
   -6.5604    6.0212   -3.8229 H   0  0  0  0  0  0  0  0  0  0  0  0
   -9.2592    6.7015   -4.4747 H   0  0  0  0  0  0  0  0  0  0  0  0
   -8.8005    5.3099   -3.4967 H   0  0  0  0  0  0  0  0  0  0  0  0
   -9.7941    9.2173   -1.9487 H   0  0  0  0  0  0  0  0  0  0  0  0
   -8.8055    8.9516   -3.4248 H   0  0  0  0  0  0  0  0  0  0  0  0
  -10.5513    8.5285   -3.4248 H   0  0  0  0  0  0  0  0  0  0  0  0
  -10.1517    5.4051   -1.4900 H   0  0  0  0  0  0  0  0  0  0  0  0
  -11.4507    6.2276   -3.5574 H   0  0  0  0  0  0  0  0  0  0  0  0
  -12.3190    5.4405   -2.1376 H   0  0  0  0  0  0  0  0  0  0  0  0
  -13.4903    7.5497   -3.1960 H   0  0  0  0  0  0  0  0  0  0  0  0
  -10.9878    9.1100   -0.4402 H   0  0  0  0  0  0  0  0  0  0  0  0
  -13.2208    7.7833    1.2184 H   0  0  0  0  0  0  0  0  0  0  0  0
  -11.7622    8.6642    1.8569 H   0  0  0  0  0  0  0  0  0  0  0  0
  -13.8117   10.0452    1.9657 H   0  0  0  0  0  0  0  0  0  0  0  0
  -12.5488   10.7404    0.8758 H   0  0  0  0  0  0  0  0  0  0  0  0
  -14.6903   10.9605   -0.1857 H   0  0  0  0  0  0  0  0  0  0  0  0
  -15.7710    8.8330   -0.7180 H   0  0  0  0  0  0  0  0  0  0  0  0
  -12.3624   11.3843   -1.0241 H   0  0  0  0  0  0  0  0  0  0  0  0
  -11.8785   10.5239   -2.5248 H   0  0  0  0  0  0  0  0  0  0  0  0
  -13.3294   11.5829   -2.5248 H   0  0  0  0  0  0  0  0  0  0  0  0
  -15.7187    9.5094   -2.0669 H   0  0  0  0  0  0  0  0  0  0  0  0
  -14.7315   10.4860   -3.2065 H   0  0  0  0  0  0  0  0  0  0  0  0
  -14.5941    8.6949   -3.2065 H   0  0  0  0  0  0  0  0  0  0  0  0
  -11.5227    6.0359    1.6408 H   0  0  0  0  0  0  0  0  0  0  0  0
  -12.6902    5.9246    0.2802 H   0  0  0  0  0  0  0  0  0  0  0  0
  -11.2111    4.9053    0.2802 H   0  0  0  0  0  0  0  0  0  0  0  0
   -9.8336    8.0347    1.4262 H   0  0  0  0  0  0  0  0  0  0  0  0
   -9.2325    6.3274    1.0263 H   0  0  0  0  0  0  0  0  0  0  0  0
   -8.5563    8.9092   -0.4097 H   0  0  0  0  0  0  0  0  0  0  0  0
   -7.4676    7.8344    0.5527 H   0  0  0  0  0  0  0  0  0  0  0  0
   -7.6596    5.5527    0.2022 H   0  0  0  0  0  0  0  0  0  0  0  0
   -8.4130    4.8796   -1.2830 H   0  0  0  0  0  0  0  0  0  0  0  0
   -6.6741    5.3300   -1.2830 H   0  0  0  0  0  0  0  0  0  0  0  0
  1  2  1  0
  2  3  1  0
  3  4  1  0
  4  5  1  0
  5  6  1  0
  6  7  1  0
  7  8  1  0
  7  9  1  0
  2 10  1  0
 10 11  1  0
 11 12  1  0
 12 13  1  0
 13 14  1  6
 13 15  1  0
 15 16  1  0
 16 17  1  0
 17 18  2  0
 18 19  1  0
 19 20  1  0
 20 21  1  0
 21 22  1  0
 22 23  1  0
 22 24  1  0
 24 25  1  0
 24 26  1  0
 19 27  1  0
 27 28  1  1
 27 29  1  0
 29 30  1  0
 30 31  1  0
 31 32  1  1
  7  5  1  0
 31 10  1  0
 31 13  1  0
 27 15  1  0
 24 18  1  0
  1 33  1  0
  1 34  1  0
  1 35  1  0
  2 36  1  6
  3 37  1  0
  3 38  1  0
  4 39  1  0
  4 40  1  0
  5 41  1  6
  8 42  1  0
  8 43  1  0
  8 44  1  0
  9 45  1  0
  9 46  1  0
  9 47  1  0
 10 48  1  6
 11 49  1  0
 11 50  1  0
 12 51  1  0
 12 52  1  0
 14 53  1  0
 14 54  1  0
 14 55  1  0
 15 56  1  1
 16 57  1  0
 16 58  1  0
 17 59  1  0
 19 60  1  6
 20 61  1  0
 20 62  1  0
 21 63  1  0
 21 64  1  0
 22 65  1  6
 23 66  1  0
 25 67  1  0
 25 68  1  0
 25 69  1  0
 26 70  1  0
 26 71  1  0
 26 72  1  0
 28 73  1  0
 28 74  1  0
 28 75  1  0
 29 76  1  0
 29 77  1  0
 30 78  1  0
 30 79  1  0
 32 80  1  0
 32 81  1  0
 32 82  1  0
M  END
>  <meeko>  (7) 
{"is_sidechain": [false], "intermolecular_energy": 2.731, "internal_energy": -0.839}

$$$$
EPH_relaxed_0001_pdb2pqr_Repair_72_r2_0001_out
     RDKit          3D

 82 86  0  0  0  0  0  0  0  0999 V2000
    0.4310    8.8190   -2.4030 C   0  0  0  0  0  0  0  0  0  0  0  0
    1.1780    9.9660   -3.0900 C   0  0  2  0  0  0  0  0  0  0  0  0
    2.6770    9.9810   -2.7280 C   0  0  0  0  0  0  0  0  0  0  0  0
    3.5690   10.5670   -3.8260 C   0  0  0  0  0  0  0  0  0  0  0  0
    4.9620   10.8180   -3.3330 C   0  0  2  0  0  0  0  0  0  0  0  0
    5.5520   12.0380   -3.7990 O   0  0  0  0  0  0  0  0  0  0  0  0
    6.1810   10.8230   -4.2370 C   0  0  0  0  0  0  0  0  0  0  0  0
    6.0620   10.5720   -5.7080 C   0  0  0  0  0  0  0  0  0  0  0  0
    7.5260   10.5860   -3.6250 C   0  0  0  0  0  0  0  0  0  0  0  0
    0.5390   11.2990   -2.7190 C   0  0  1  0  0  0  0  0  0  0  0  0
   -0.8370   11.1280   -2.0220 C   0  0  0  0  0  0  0  0  0  0  0  0
   -0.9520   12.2660   -0.9750 C   0  0  0  0  0  0  0  0  0  0  0  0
    0.1970   13.2390   -1.3270 C   0  0  1  0  0  0  0  0  0  0  0  0
   -0.3540   14.0990   -2.5080 C   0  0  0  0  0  0  0  0  0  0  0  0
    0.7280   14.1330   -0.1600 C   0  0  2  0  0  0  0  0  0  0  0  0
   -0.3020   15.1080    0.4360 C   0  0  0  0  0  0  0  0  0  0  0  0
   -0.3470   16.4570   -0.2030 C   0  0  0  0  0  0  0  0  0  0  0  0
    0.5940   16.9680   -1.0180 C   0  0  0  0  0  0  0  0  0  0  0  0
    1.8950   16.2040   -1.2950 C   0  0  1  0  0  0  0  0  0  0  0  0
    3.1010   17.1710   -1.1640 C   0  0  0  0  0  0  0  0  0  0  0  0
    2.9550   18.4110   -2.0410 C   0  0  0  0  0  0  0  0  0  0  0  0
    1.6790   19.1750   -1.6960 C   0  0  2  0  0  0  0  0  0  0  0  0
    1.8060   19.7110   -0.3750 O   0  0  0  0  0  0  0  0  0  0  0  0
    0.3980   18.3000   -1.7830 C   0  0  0  0  0  0  0  0  0  0  0  0
    0.0940   17.9690   -3.2660 C   0  0  0  0  0  0  0  0  0  0  0  0
   -0.7970   19.1510   -1.2750 C   0  0  0  0  0  0  0  0  0  0  0  0
    2.0990   14.8600   -0.4720 C   0  0  1  0  0  0  0  0  0  0  0  0
    2.7600   15.1730    0.9040 C   0  0  0  0  0  0  0  0  0  0  0  0
    3.1060   13.9300   -1.2470 C   0  0  0  0  0  0  0  0  0  0  0  0
    2.5050   12.9840   -2.3040 C   0  0  0  0  0  0  0  0  0  0  0  0
    1.3140   12.2090   -1.7330 C   0  0  2  0  0  0  0  0  0  0  0  0
    1.8420   11.3170   -0.5580 C   0  0  0  0  0  0  0  0  0  0  0  0
    0.5060    8.9342   -1.3116 H   0  0  0  0  0  0  0  0  0  0  0  0
   -0.6274    8.8396   -2.7020 H   0  0  0  0  0  0  0  0  0  0  0  0
    0.8778    7.8593   -2.7020 H   0  0  0  0  0  0  0  0  0  0  0  0
    1.1018    9.8073   -4.1758 H   0  0  0  0  0  0  0  0  0  0  0  0
    2.8082   10.5821   -1.8162 H   0  0  0  0  0  0  0  0  0  0  0  0
    2.9847    8.9342   -2.5881 H   0  0  0  0  0  0  0  0  0  0  0  0
    3.6106    9.8594   -4.6671 H   0  0  0  0  0  0  0  0  0  0  0  0
    3.1381   11.5288   -4.1412 H   0  0  0  0  0  0  0  0  0  0  0  0
    4.7461   10.2983   -2.3878 H   0  0  0  0  0  0  0  0  0  0  0  0
    5.5963    9.5897   -5.8759 H   0  0  0  0  0  0  0  0  0  0  0  0
    5.4396   11.3557   -6.1645 H   0  0  0  0  0  0  0  0  0  0  0  0
    7.0627   10.5862   -6.1645 H   0  0  0  0  0  0  0  0  0  0  0  0
    7.4379   10.6015   -2.5286 H   0  0  0  0  0  0  0  0  0  0  0  0
    7.9085    9.6066   -3.9483 H   0  0  0  0  0  0  0  0  0  0  0  0
    8.2202   11.3757   -3.9483 H   0  0  0  0  0  0  0  0  0  0  0  0
    0.5003   11.7683   -3.7131 H   0  0  0  0  0  0  0  0  0  0  0  0
   -1.6484   11.2090   -2.7603 H   0  0  0  0  0  0  0  0  0  0  0  0
   -0.9175   10.1409   -1.5433 H   0  0  0  0  0  0  0  0  0  0  0  0
   -1.9262   12.7705   -1.0555 H   0  0  0  0  0  0  0  0  0  0  0  0
   -0.8797   11.8918    0.0569 H   0  0  0  0  0  0  0  0  0  0  0  0
   -0.9066   14.9614   -2.1069 H   0  0  0  0  0  0  0  0  0  0  0  0
    0.4844   14.4552   -3.1245 H   0  0  0  0  0  0  0  0  0  0  0  0
   -1.0280   13.4862   -3.1245 H   0  0  0  0  0  0  0  0  0  0  0  0
    0.9310   13.3939    0.6290 H   0  0  0  0  0  0  0  0  0  0  0  0
   -1.2982   14.6520    0.3379 H   0  0  0  0  0  0  0  0  0  0  0  0
    0.0050   15.2752    1.4790 H   0  0  0  0  0  0  0  0  0  0  0  0
   -1.2236   17.0862    0.0106 H   0  0  0  0  0  0  0  0  0  0  0  0
    1.8188   15.8396   -2.3301 H   0  0  0  0  0  0  0  0  0  0  0  0
    3.1852   17.4894   -0.1145 H   0  0  0  0  0  0  0  0  0  0  0  0
    3.9996   16.6308   -1.4967 H   0  0  0  0  0  0  0  0  0  0  0  0
    3.8225   19.0685   -1.8824 H   0  0  0  0  0  0  0  0  0  0  0  0
    2.9010   18.0933   -3.0927 H   0  0  0  0  0  0  0  0  0  0  0  0
    1.5627   19.9759   -2.4410 H   0  0  0  0  0  0  0  0  0  0  0  0
    0.9820   19.5170    0.1020 H   0  0  0  0  0  0  0  0  0  0  0  0
   -0.6493   17.1597   -3.3161 H   0  0  0  0  0  0  0  0  0  0  0  0
   -0.3037   18.8637   -3.7673 H   0  0  0  0  0  0  0  0  0  0  0  0
    1.0192   17.6486   -3.7673 H   0  0  0  0  0  0  0  0  0  0  0  0
   -0.8028   19.1551   -0.1750 H   0  0  0  0  0  0  0  0  0  0  0  0
   -0.6964   20.1820   -1.6450 H   0  0  0  0  0  0  0  0  0  0  0  0
   -1.7384   18.7188   -1.6450 H   0  0  0  0  0  0  0  0  0  0  0  0
    2.0879   14.8547    1.7145 H   0  0  0  0  0  0  0  0  0  0  0  0
    3.7137   14.6309    0.9844 H   0  0  0  0  0  0  0  0  0  0  0  0
    2.9450   16.2543    0.9844 H   0  0  0  0  0  0  0  0  0  0  0  0
    3.8336   14.5789   -1.7564 H   0  0  0  0  0  0  0  0  0  0  0  0
    3.5357   13.2688   -0.4801 H   0  0  0  0  0  0  0  0  0  0  0  0
    2.1680   13.5767   -3.1672 H   0  0  0  0  0  0  0  0  0  0  0  0
    3.2780   12.2635   -2.6095 H   0  0  0  0  0  0  0  0  0  0  0  0
    1.5694   11.7775    0.4030 H   0  0  0  0  0  0  0  0  0  0  0  0
    1.3907   10.3161   -0.6261 H   0  0  0  0  0  0  0  0  0  0  0  0
    2.9365   11.2311   -0.6261 H   0  0  0  0  0  0  0  0  0  0  0  0
  1  2  1  0
  2  3  1  0
  3  4  1  0
  4  5  1  0
  5  6  1  0
  6  7  1  0
  7  8  1  0
  7  9  1  0
  2 10  1  0
 10 11  1  0
 11 12  1  0
 12 13  1  0
 13 14  1  6
 13 15  1  0
 15 16  1  0
 16 17  1  0
 17 18  2  0
 18 19  1  0
 19 20  1  0
 20 21  1  0
 21 22  1  0
 22 23  1  0
 22 24  1  0
 24 25  1  0
 24 26  1  0
 19 27  1  0
 27 28  1  1
 27 29  1  0
 29 30  1  0
 30 31  1  0
 31 32  1  1
  7  5  1  0
 31 10  1  0
 31 13  1  0
 27 15  1  0
 24 18  1  0
  1 33  1  0
  1 34  1  0
  1 35  1  0
  2 36  1  6
  3 37  1  0
  3 38  1  0
  4 39  1  0
  4 40  1  0
  5 41  1  1
  8 42  1  0
  8 43  1  0
  8 44  1  0
  9 45  1  0
  9 46  1  0
  9 47  1  0
 10 48  1  6
 11 49  1  0
 11 50  1  0
 12 51  1  0
 12 52  1  0
 14 53  1  0
 14 54  1  0
 14 55  1  0
 15 56  1  1
 16 57  1  0
 16 58  1  0
 17 59  1  0
 19 60  1  6
 20 61  1  0
 20 62  1  0
 21 63  1  0
 21 64  1  0
 22 65  1  6
 23 66  1  0
 25 67  1  0
 25 68  1  0
 25 69  1  0
 26 70  1  0
 26 71  1  0
 26 72  1  0
 28 73  1  0
 28 74  1  0
 28 75  1  0
 29 76  1  0
 29 77  1  0
 30 78  1  0
 30 79  1  0
 32 80  1  0
 32 81  1  0
 32 82  1  0
M  END
>  <meeko>  (8) 
{"is_sidechain": [false], "intermolecular_energy": 2.731, "internal_energy": -0.839}

$$$$
EPH_relaxed_0001_pdb2pqr_Repair_72_r2_0001_out
     RDKit          3D

 82 86  0  0  0  0  0  0  0  0999 V2000
    3.2430   18.3580   -3.8100 C   0  0  0  0  0  0  0  0  0  0  0  0
    2.1540   18.2040   -2.7430 C   0  0  2  0  0  0  0  0  0  0  0  0
    2.1760   19.3580   -1.7210 C   0  0  0  0  0  0  0  0  0  0  0  0
    0.8810   20.1740   -1.6860 C   0  0  0  0  0  0  0  0  0  0  0  0
   -0.2500   19.3940   -1.0880 C   0  0  2  0  0  0  0  0  0  0  0  0
   -1.3040   20.1940   -0.5360 O   0  0  0  0  0  0  0  0  0  0  0  0
   -0.5680   19.3850    0.3950 C   0  0  0  0  0  0  0  0  0  0  0  0
    0.2480   20.1710    1.3730 C   0  0  0  0  0  0  0  0  0  0  0  0
   -1.3550   18.2400    0.9510 C   0  0  0  0  0  0  0  0  0  0  0  0
    2.3150   16.8690   -2.0260 C   0  0  1  0  0  0  0  0  0  0  0  0
    2.6420   17.0370   -0.5180 C   0  0  0  0  0  0  0  0  0  0  0  0
    1.9410   15.8700    0.2240 C   0  0  0  0  0  0  0  0  0  0  0  0
    1.5180   14.8920   -0.8970 C   0  0  1  0  0  0  0  0  0  0  0  0
    2.8070   14.0760   -1.2260 C   0  0  0  0  0  0  0  0  0  0  0  0
    0.3070   13.9560   -0.5770 C   0  0  2  0  0  0  0  0  0  0  0  0
    0.5300   12.9770    0.5890 C   0  0  0  0  0  0  0  0  0  0  0  0
    1.0960   11.6490    0.2070 C   0  0  0  0  0  0  0  0  0  0  0  0
    1.1470   11.1510   -1.0420 C   0  0  0  0  0  0  0  0  0  0  0  0
    0.5130   11.9050   -2.2180 C   0  0  1  0  0  0  0  0  0  0  0  0
   -0.3210   10.9180   -3.0770 C   0  0  0  0  0  0  0  0  0  0  0  0
    0.4900    9.7080   -3.5290 C   0  0  0  0  0  0  0  0  0  0  0  0
    1.0550    8.9510   -2.3300 C   0  0  2  0  0  0  0  0  0  0  0  0
   -0.0300    8.3730   -1.5970 O   0  0  0  0  0  0  0  0  0  0  0  0
    1.9060    9.8450   -1.3870 C   0  0  0  0  0  0  0  0  0  0  0  0
    3.2340   10.2260   -2.0870 C   0  0  0  0  0  0  0  0  0  0  0  0
    2.2970    8.9960   -0.1470 C   0  0  0  0  0  0  0  0  0  0  0  0
   -0.2950   13.2210   -1.8420 C   0  0  1  0  0  0  0  0  0  0  0  0
   -1.7690   12.8560   -1.4850 C   0  0  0  0  0  0  0  0  0  0  0  0
   -0.3640   14.1600   -3.1040 C   0  0  0  0  0  0  0  0  0  0  0  0
    0.8040   15.1460   -3.3000 C   0  0  0  0  0  0  0  0  0  0  0  0
    1.0910   15.9190   -2.0090 C   0  0  2  0  0  0  0  0  0  0  0  0
   -0.1800   16.7670   -1.6660 C   0  0  0  0  0  0  0  0  0  0  0  0
    4.2186   18.4960   -3.3210 H   0  0  0  0  0  0  0  0  0  0  0  0
    3.2718   17.4550   -4.4375 H   0  0  0  0  0  0  0  0  0  0  0  0
    3.0203   19.2336   -4.4375 H   0  0  0  0  0  0  0  0  0  0  0  0
    1.1810   18.2356   -3.2551 H   0  0  0  0  0  0  0  0  0  0  0  0
    2.3457   18.9329   -0.7208 H   0  0  0  0  0  0  0  0  0  0  0  0
    2.9797   20.0436   -2.0276 H   0  0  0  0  0  0  0  0  0  0  0  0
    1.0466   21.0798   -1.0843 H   0  0  0  0  0  0  0  0  0  0  0  0
    0.6103   20.4318   -2.7205 H   0  0  0  0  0  0  0  0  0  0  0  0
   -0.1063   18.5828   -1.8169 H   0  0  0  0  0  0  0  0  0  0  0  0
   -0.0402   19.8934    2.3977 H   0  0  0  0  0  0  0  0  0  0  0  0
    1.3150   19.9518    1.2201 H   0  0  0  0  0  0  0  0  0  0  0  0
    0.0689   21.2455    1.2201 H   0  0  0  0  0  0  0  0  0  0  0  0
   -1.3296   18.2770    2.0501 H   0  0  0  0  0  0  0  0  0  0  0  0
   -2.3971   18.3094    0.6058 H   0  0  0  0  0  0  0  0  0  0  0  0
   -0.9168   17.2919    0.6058 H   0  0  0  0  0  0  0  0  0  0  0  0
    3.1232   16.4310   -2.6302 H   0  0  0  0  0  0  0  0  0  0  0  0
    3.7293   16.9887   -0.3584 H   0  0  0  0  0  0  0  0  0  0  0  0
    2.2917   18.0103   -0.1438 H   0  0  0  0  0  0  0  0  0  0  0  0
    2.6355   15.3818    0.9235 H   0  0  0  0  0  0  0  0  0  0  0  0
    1.0847   16.2120    0.8239 H   0  0  0  0  0  0  0  0  0  0  0  0
    3.2946   13.7673   -0.2895 H   0  0  0  0  0  0  0  0  0  0  0  0
    2.5371   13.1839   -1.8102 H   0  0  0  0  0  0  0  0  0  0  0  0
    3.4979   14.7016   -1.8102 H   0  0  0  0  0  0  0  0  0  0  0  0
   -0.4561   14.6672   -0.2279 H   0  0  0  0  0  0  0  0  0  0  0  0
    1.2221   13.4492    1.3018 H   0  0  0  0  0  0  0  0  0  0  0  0
   -0.4655   12.7738    1.0106 H   0  0  0  0  0  0  0  0  0  0  0  0
    1.5059   11.0251    1.0149 H   0  0  0  0  0  0  0  0  0  0  0  0
    1.3495   12.3012   -2.8124 H   0  0  0  0  0  0  0  0  0  0  0  0
   -1.1760   10.5668   -2.4806 H   0  0  0  0  0  0  0  0  0  0  0  0
   -0.6503   11.4554   -3.9785 H   0  0  0  0  0  0  0  0  0  0  0  0
   -0.1601    9.0342   -4.1063 H   0  0  0  0  0  0  0  0  0  0  0  0
    1.3280   10.0589   -4.1492 H   0  0  0  0  0  0  0  0  0  0  0  0
    1.7302    8.1742   -2.7183 H   0  0  0  0  0  0  0  0  0  0  0  0
   -0.3890    7.6430   -2.1300 H   0  0  0  0  0  0  0  0  0  0  0  0
    3.9989   10.4455   -1.3276 H   0  0  0  0  0  0  0  0  0  0  0  0
    3.5708    9.3883   -2.7153 H   0  0  0  0  0  0  0  0  0  0  0  0
    3.0754   11.1149   -2.7153 H   0  0  0  0  0  0  0  0  0  0  0  0
    2.0429    9.5478    0.7701 H   0  0  0  0  0  0  0  0  0  0  0  0
    1.7468    8.0437   -0.1663 H   0  0  0  0  0  0  0  0  0  0  0  0
    3.3783    8.7951   -0.1663 H   0  0  0  0  0  0  0  0  0  0  0  0
   -1.8851   12.8273   -0.3915 H   0  0  0  0  0  0  0  0  0  0  0  0
   -2.4465   13.6135   -1.9059 H   0  0  0  0  0  0  0  0  0  0  0  0
   -2.0148   11.8699   -1.9059 H   0  0  0  0  0  0  0  0  0  0  0  0
   -0.4101   13.5170   -3.9953 H   0  0  0  0  0  0  0  0  0  0  0  0
   -1.2507   14.7914   -2.9454 H   0  0  0  0  0  0  0  0  0  0  0  0
    1.7040   14.5845   -3.5909 H   0  0  0  0  0  0  0  0  0  0  0  0
    0.5282   15.8649   -4.0855 H   0  0  0  0  0  0  0  0  0  0  0  0
   -0.2886   16.8395   -0.5738 H   0  0  0  0  0  0  0  0  0  0  0  0
   -0.0736   17.7757   -2.0916 H   0  0  0  0  0  0  0  0  0  0  0  0
   -1.0706   16.2815   -2.0916 H   0  0  0  0  0  0  0  0  0  0  0  0
  1  2  1  0
  2  3  1  0
  3  4  1  0
  4  5  1  0
  5  6  1  0
  6  7  1  0
  7  8  1  0
  7  9  1  0
  2 10  1  0
 10 11  1  0
 11 12  1  0
 12 13  1  0
 13 14  1  6
 13 15  1  0
 15 16  1  0
 16 17  1  0
 17 18  2  0
 18 19  1  0
 19 20  1  0
 20 21  1  0
 21 22  1  0
 22 23  1  0
 22 24  1  0
 24 25  1  0
 24 26  1  0
 19 27  1  0
 27 28  1  1
 27 29  1  0
 29 30  1  0
 30 31  1  0
 31 32  1  1
  7  5  1  0
 31 10  1  0
 31 13  1  0
 27 15  1  0
 24 18  1  0
  1 33  1  0
  1 34  1  0
  1 35  1  0
  2 36  1  6
  3 37  1  0
  3 38  1  0
  4 39  1  0
  4 40  1  0
  5 41  1  6
  8 42  1  0
  8 43  1  0
  8 44  1  0
  9 45  1  0
  9 46  1  0
  9 47  1  0
 10 48  1  6
 11 49  1  0
 11 50  1  0
 12 51  1  0
 12 52  1  0
 14 53  1  0
 14 54  1  0
 14 55  1  0
 15 56  1  1
 16 57  1  0
 16 58  1  0
 17 59  1  0
 19 60  1  6
 20 61  1  0
 20 62  1  0
 21 63  1  0
 21 64  1  0
 22 65  1  6
 23 66  1  0
 25 67  1  0
 25 68  1  0
 25 69  1  0
 26 70  1  0
 26 71  1  0
 26 72  1  0
 28 73  1  0
 28 74  1  0
 28 75  1  0
 29 76  1  0
 29 77  1  0
 30 78  1  0
 30 79  1  0
 32 80  1  0
 32 81  1  0
 32 82  1  0
M  END
>  <meeko>  (9) 
{"is_sidechain": [false], "intermolecular_energy": 2.731, "internal_energy": -0.839}

$$$$
EPH_relaxed_0001_pdb2pqr_Repair_72_r2_0001_out
     RDKit          3D

 82 86  0  0  0  0  0  0  0  0999 V2000
    1.0670   10.9380   -4.7280 C   0  0  0  0  0  0  0  0  0  0  0  0
    0.7050   10.4170   -3.3350 C   0  0  2  0  0  0  0  0  0  0  0  0
   -0.7080    9.8030   -3.2940 C   0  0  0  0  0  0  0  0  0  0  0  0
   -0.8640    8.6850   -2.2590 C   0  0  0  0  0  0  0  0  0  0  0  0
   -0.2070    9.0390   -0.9590 C   0  0  2  0  0  0  0  0  0  0  0  0
   -0.6450    8.2610    0.1640 O   0  0  0  0  0  0  0  0  0  0  0  0
   -0.9470    9.6650    0.2080 C   0  0  0  0  0  0  0  0  0  0  0  0
   -2.4090    9.9770    0.1300 C   0  0  0  0  0  0  0  0  0  0  0  0
   -0.1580   10.4190    1.2340 C   0  0  0  0  0  0  0  0  0  0  0  0
    0.8130   11.5450   -2.3150 C   0  0  1  0  0  0  0  0  0  0  0  0
    1.8770   11.2610   -1.2210 C   0  0  0  0  0  0  0  0  0  0  0  0
    2.5180   12.6250   -0.8560 C   0  0  0  0  0  0  0  0  0  0  0  0
    1.5850   13.6780   -1.4990 C   0  0  1  0  0  0  0  0  0  0  0  0
    0.3970   13.8270   -0.4970 C   0  0  0  0  0  0  0  0  0  0  0  0
    2.2330   15.0610   -1.8350 C   0  0  2  0  0  0  0  0  0  0  0  0
    2.7620   15.8460   -0.6220 C   0  0  0  0  0  0  0  0  0  0  0  0
    1.7810   16.7760    0.0130 C   0  0  0  0  0  0  0  0  0  0  0  0
    0.6240   17.1870   -0.5380 C   0  0  0  0  0  0  0  0  0  0  0  0
    0.2480   16.7880   -1.9710 C   0  0  1  0  0  0  0  0  0  0  0  0
   -0.2570   18.0360   -2.7410 C   0  0  0  0  0  0  0  0  0  0  0  0
   -1.3940   18.7500   -2.0170 C   0  0  0  0  0  0  0  0  0  0  0  0
   -0.9630   19.1840   -0.6180 C   0  0  2  0  0  0  0  0  0  0  0  0
    0.0440   20.1930   -0.7390 O   0  0  0  0  0  0  0  0  0  0  0  0
   -0.4260   18.0100    0.2480 C   0  0  0  0  0  0  0  0  0  0  0  0
   -1.5950   17.0690    0.6310 C   0  0  0  0  0  0  0  0  0  0  0  0
    0.1060   18.6050    1.5800 C   0  0  0  0  0  0  0  0  0  0  0  0
    1.3520   15.9780   -2.7770 C   0  0  1  0  0  0  0  0  0  0  0  0
    2.3320   16.9680   -3.4780 C   0  0  0  0  0  0  0  0  0  0  0  0
    0.6520   15.1580   -3.9250 C   0  0  0  0  0  0  0  0  0  0  0  0
    0.1400   13.7510   -3.5620 C   0  0  0  0  0  0  0  0  0  0  0  0
    1.2230   12.9430   -2.8400 C   0  0  2  0  0  0  0  0  0  0  0  0
    2.4220   12.7590   -3.8320 C   0  0  0  0  0  0  0  0  0  0  0  0
    1.6923   11.8379   -4.6318 H   0  0  0  0  0  0  0  0  0  0  0  0
    1.6220   10.1628   -5.2766 H   0  0  0  0  0  0  0  0  0  0  0  0
    0.1469   11.1877   -5.2766 H   0  0  0  0  0  0  0  0  0  0  0  0
    1.4187    9.6185   -3.0839 H   0  0  0  0  0  0  0  0  0  0  0  0
   -1.4264   10.6008   -3.0543 H   0  0  0  0  0  0  0  0  0  0  0  0
   -0.8923    9.3547   -4.2815 H   0  0  0  0  0  0  0  0  0  0  0  0
   -1.9354    8.5104   -2.0813 H   0  0  0  0  0  0  0  0  0  0  0  0
   -0.3781    7.7808   -2.6543 H   0  0  0  0  0  0  0  0  0  0  0  0
    0.7235    9.3154   -1.4765 H   0  0  0  0  0  0  0  0  0  0  0  0
   -2.8199   10.0647    1.1466 H   0  0  0  0  0  0  0  0  0  0  0  0
   -2.5532   10.9261   -0.4069 H   0  0  0  0  0  0  0  0  0  0  0  0
   -2.9281    9.1694   -0.4069 H   0  0  0  0  0  0  0  0  0  0  0  0
   -0.4784   10.1128    2.2408 H   0  0  0  0  0  0  0  0  0  0  0  0
    0.9124   10.1996    1.1073 H   0  0  0  0  0  0  0  0  0  0  0  0
   -0.3286   11.4983    1.1073 H   0  0  0  0  0  0  0  0  0  0  0  0
   -0.2267   11.5687   -1.9564 H   0  0  0  0  0  0  0  0  0  0  0  0
    1.4000   10.8173   -0.3347 H   0  0  0  0  0  0  0  0  0  0  0  0
    2.6361   10.5519   -1.5828 H   0  0  0  0  0  0  0  0  0  0  0  0
    2.5577   12.7559    0.2355 H   0  0  0  0  0  0  0  0  0  0  0  0
    3.5538   12.7093   -1.2164 H   0  0  0  0  0  0  0  0  0  0  0  0
    0.7784   13.7792    0.5336 H   0  0  0  0  0  0  0  0  0  0  0  0
   -0.1004   14.7946   -0.6593 H   0  0  0  0  0  0  0  0  0  0  0  0
   -0.3240   13.0122   -0.6593 H   0  0  0  0  0  0  0  0  0  0  0  0
    3.1223   14.7700   -2.4134 H   0  0  0  0  0  0  0  0  0  0  0  0
    3.0835   15.1197    0.1390 H   0  0  0  0  0  0  0  0  0  0  0  0
    3.5789   16.4777   -1.0010 H   0  0  0  0  0  0  0  0  0  0  0  0
    2.0247   17.1572    1.0156 H   0  0  0  0  0  0  0  0  0  0  0  0
   -0.5654   16.0532   -1.8786 H   0  0  0  0  0  0  0  0  0  0  0  0
    0.5806   18.7388   -2.8614 H   0  0  0  0  0  0  0  0  0  0  0  0
   -0.6425   17.6949   -3.7131 H   0  0  0  0  0  0  0  0  0  0  0  0
   -1.6871   19.6387   -2.5953 H   0  0  0  0  0  0  0  0  0  0  0  0
   -2.2416   18.0552   -1.9234 H   0  0  0  0  0  0  0  0  0  0  0  0
   -1.8539   19.5721   -0.1026 H   0  0  0  0  0  0  0  0  0  0  0  0
    0.0240   20.5210   -1.6530 H   0  0  0  0  0  0  0  0  0  0  0  0
   -1.6720   17.0070    1.7266 H   0  0  0  0  0  0  0  0  0  0  0  0
   -2.5348   17.4655    0.2192 H   0  0  0  0  0  0  0  0  0  0  0  0
   -1.4085   16.0662    0.2192 H   0  0  0  0  0  0  0  0  0  0  0  0
   -0.3613   18.0823    2.4276 H   0  0  0  0  0  0  0  0  0  0  0  0
    1.1976   18.4784    1.6280 H   0  0  0  0  0  0  0  0  0  0  0  0
   -0.1414   19.6757    1.6280 H   0  0  0  0  0  0  0  0  0  0  0  0
    2.8904   17.5321   -2.7164 H   0  0  0  0  0  0  0  0  0  0  0  0
    3.0367   16.4033   -4.1060 H   0  0  0  0  0  0  0  0  0  0  0  0
    1.7601   17.6670   -4.1060 H   0  0  0  0  0  0  0  0  0  0  0  0
   -0.2096   15.7453   -4.2754 H   0  0  0  0  0  0  0  0  0  0  0  0
    1.4355   14.9930   -4.6792 H   0  0  0  0  0  0  0  0  0  0  0  0
   -0.7368   13.8456   -2.9045 H   0  0  0  0  0  0  0  0  0  0  0  0
   -0.1297   13.2255   -4.4900 H   0  0  0  0  0  0  0  0  0  0  0  0
    3.3515   12.6164   -3.2613 H   0  0  0  0  0  0  0  0  0  0  0  0
    2.2419   11.8780   -4.4655 H   0  0  0  0  0  0  0  0  0  0  0  0
    2.5143   13.6535   -4.4655 H   0  0  0  0  0  0  0  0  0  0  0  0
  1  2  1  0
  2  3  1  0
  3  4  1  0
  4  5  1  0
  5  6  1  0
  6  7  1  0
  7  8  1  0
  7  9  1  0
  2 10  1  0
 10 11  1  0
 11 12  1  0
 12 13  1  0
 13 14  1  1
 13 15  1  0
 15 16  1  0
 16 17  1  0
 17 18  2  0
 18 19  1  0
 19 20  1  0
 20 21  1  0
 21 22  1  0
 22 23  1  0
 22 24  1  0
 24 25  1  0
 24 26  1  0
 19 27  1  0
 27 28  1  6
 27 29  1  0
 29 30  1  0
 30 31  1  0
 31 32  1  6
  7  5  1  0
 31 10  1  0
 31 13  1  0
 27 15  1  0
 24 18  1  0
  1 33  1  0
  1 34  1  0
  1 35  1  0
  2 36  1  1
  3 37  1  0
  3 38  1  0
  4 39  1  0
  4 40  1  0
  5 41  1  6
  8 42  1  0
  8 43  1  0
  8 44  1  0
  9 45  1  0
  9 46  1  0
  9 47  1  0
 10 48  1  1
 11 49  1  0
 11 50  1  0
 12 51  1  0
 12 52  1  0
 14 53  1  0
 14 54  1  0
 14 55  1  0
 15 56  1  6
 16 57  1  0
 16 58  1  0
 17 59  1  0
 19 60  1  1
 20 61  1  0
 20 62  1  0
 21 63  1  0
 21 64  1  0
 22 65  1  1
 23 66  1  0
 25 67  1  0
 25 68  1  0
 25 69  1  0
 26 70  1  0
 26 71  1  0
 26 72  1  0
 28 73  1  0
 28 74  1  0
 28 75  1  0
 29 76  1  0
 29 77  1  0
 30 78  1  0
 30 79  1  0
 32 80  1  0
 32 81  1  0
 32 82  1  0
M  END
>  <meeko>  (10) 
{"is_sidechain": [false], "intermolecular_energy": 2.731, "internal_energy": -0.839}

$$$$
EPH_relaxed_0001_pdb2pqr_Repair_72_r2_0001_out
     RDKit          3D

 82 86  0  0  0  0  0  0  0  0999 V2000
    2.7050   19.4200   -1.3360 C   0  0  0  0  0  0  0  0  0  0  0  0
    1.4570   19.3850   -0.4480 C   0  0  2  0  0  0  0  0  0  0  0  0
    1.6680   20.1400    0.8800 C   0  0  0  0  0  0  0  0  0  0  0  0
    2.4270   19.3290    1.9340 C   0  0  0  0  0  0  0  0  0  0  0  0
    3.9040   19.5680    1.8590 C   0  0  2  0  0  0  0  0  0  0  0  0
    4.7110   18.4080    2.1020 O   0  0  0  0  0  0  0  0  0  0  0  0
    4.8290   19.4740    3.0580 C   0  0  0  0  0  0  0  0  0  0  0  0
    4.3100   19.1310    4.4190 C   0  0  0  0  0  0  0  0  0  0  0  0
    6.1440   20.1890    3.0050 C   0  0  0  0  0  0  0  0  0  0  0  0
    1.0580   17.9410   -0.1700 C   0  0  1  0  0  0  0  0  0  0  0  0
   -0.3180   17.8280    0.5390 C   0  0  0  0  0  0  0  0  0  0  0  0
   -0.9950   16.5420    0.0000 C   0  0  0  0  0  0  0  0  0  0  0  0
    0.1350   15.7870   -0.7390 C   0  0  1  0  0  0  0  0  0  0  0  0
    0.9280   15.0500    0.3850 C   0  0  0  0  0  0  0  0  0  0  0  0
   -0.3150   14.8030   -1.8680 C   0  0  2  0  0  0  0  0  0  0  0  0
   -1.1880   13.6260   -1.3990 C   0  0  0  0  0  0  0  0  0  0  0  0
   -0.4400   12.3940   -1.0100 C   0  0  0  0  0  0  0  0  0  0  0  0
    0.8480   12.1350   -1.3020 C   0  0  0  0  0  0  0  0  0  0  0  0
    1.6640   13.0920   -2.1810 C   0  0  1  0  0  0  0  0  0  0  0  0
    2.4390   12.2790   -3.2500 C   0  0  0  0  0  0  0  0  0  0  0  0
    3.2970   11.1750   -2.6370 C   0  0  0  0  0  0  0  0  0  0  0  0
    2.4420   10.2110   -1.8180 C   0  0  2  0  0  0  0  0  0  0  0  0
    1.5680    9.5040   -2.7040 O   0  0  0  0  0  0  0  0  0  0  0  0
    1.6060   10.9190   -0.7150 C   0  0  0  0  0  0  0  0  0  0  0  0
    2.5470   11.4270    0.4050 C   0  0  0  0  0  0  0  0  0  0  0  0
    0.6840    9.8560   -0.0590 C   0  0  0  0  0  0  0  0  0  0  0  0
    0.8610   14.3130   -2.8070 C   0  0  1  0  0  0  0  0  0  0  0  0
    0.2050   13.8830   -4.1550 C   0  0  0  0  0  0  0  0  0  0  0  0
    1.8720   15.4690   -3.1530 C   0  0  0  0  0  0  0  0  0  0  0  0
    2.1840   16.4790   -2.0320 C   0  0  0  0  0  0  0  0  0  0  0  0
    0.8950   17.0000   -1.3900 C   0  0  2  0  0  0  0  0  0  0  0  0
    0.0870   17.7660   -2.4920 C   0  0  0  0  0  0  0  0  0  0  0  0
    3.6045   19.4452   -0.7034 H   0  0  0  0  0  0  0  0  0  0  0  0
    2.7284   18.5222   -1.9711 H   0  0  0  0  0  0  0  0  0  0  0  0
    2.6781   20.3177   -1.9711 H   0  0  0  0  0  0  0  0  0  0  0  0
    0.6485   19.8953   -0.9920 H   0  0  0  0  0  0  0  0  0  0  0  0
    2.2374   21.0577    0.6713 H   0  0  0  0  0  0  0  0  0  0  0  0
    0.6703   20.3505    1.2927 H   0  0  0  0  0  0  0  0  0  0  0  0
    2.0692   19.6192    2.9329 H   0  0  0  0  0  0  0  0  0  0  0  0
    2.2422   18.2614    1.7439 H   0  0  0  0  0  0  0  0  0  0  0  0
    3.7629   20.3472    1.0955 H   0  0  0  0  0  0  0  0  0  0  0  0
    4.9697   19.5670    5.1836 H   0  0  0  0  0  0  0  0  0  0  0  0
    3.2942   19.5362    4.5369 H   0  0  0  0  0  0  0  0  0  0  0  0
    4.2846   18.0376    4.5369 H   0  0  0  0  0  0  0  0  0  0  0  0
    6.4982   20.3816    4.0285 H   0  0  0  0  0  0  0  0  0  0  0  0
    6.8788   19.5662    2.4738 H   0  0  0  0  0  0  0  0  0  0  0  0
    6.0208   21.1443    2.4738 H   0  0  0  0  0  0  0  0  0  0  0  0
    1.9200   17.6250    0.4359 H   0  0  0  0  0  0  0  0  0  0  0  0
   -0.1782   17.7546    1.6276 H   0  0  0  0  0  0  0  0  0  0  0  0
   -0.9387   18.7141    0.3398 H   0  0  0  0  0  0  0  0  0  0  0  0
   -1.3907   15.9352    0.8278 H   0  0  0  0  0  0  0  0  0  0  0  0
   -1.8482   16.7639   -0.6578 H   0  0  0  0  0  0  0  0  0  0  0  0
    0.5672   15.3853    1.3685 H   0  0  0  0  0  0  0  0  0  0  0  0
    0.7765   13.9647    0.2894 H   0  0  0  0  0  0  0  0  0  0  0  0
    1.9993   15.2805    0.2894 H   0  0  0  0  0  0  0  0  0  0  0  0
   -0.9726   15.4349   -2.4831 H   0  0  0  0  0  0  0  0  0  0  0  0
   -1.7697   13.9602   -0.5272 H   0  0  0  0  0  0  0  0  0  0  0  0
   -1.8101   13.3452   -2.2616 H   0  0  0  0  0  0  0  0  0  0  0  0
   -0.9884   11.6329   -0.4356 H   0  0  0  0  0  0  0  0  0  0  0  0
    2.3736   13.5940   -1.5068 H   0  0  0  0  0  0  0  0  0  0  0  0
    1.7140   11.8208   -3.9387 H   0  0  0  0  0  0  0  0  0  0  0  0
    3.1123   12.9731   -3.7743 H   0  0  0  0  0  0  0  0  0  0  0  0
    3.7963   10.6175   -3.4432 H   0  0  0  0  0  0  0  0  0  0  0  0
    4.0408   11.6371   -1.9713 H   0  0  0  0  0  0  0  0  0  0  0  0
    3.1255    9.5222   -1.3000 H   0  0  0  0  0  0  0  0  0  0  0  0
    1.0330    8.8960   -2.1660 H   0  0  0  0  0  0  0  0  0  0  0  0
    2.1098   11.1910    1.3864 H   0  0  0  0  0  0  0  0  0  0  0  0
    3.5265   10.9351    0.3121 H   0  0  0  0  0  0  0  0  0  0  0  0
    2.6732   12.5158    0.3121 H   0  0  0  0  0  0  0  0  0  0  0  0
    0.7534    9.9360    1.0359 H   0  0  0  0  0  0  0  0  0  0  0  0
   -0.3558   10.0279   -0.3741 H   0  0  0  0  0  0  0  0  0  0  0  0
    1.0012    8.8509   -0.3741 H   0  0  0  0  0  0  0  0  0  0  0  0
   -0.6989   13.2905   -3.9503 H   0  0  0  0  0  0  0  0  0  0  0  0
   -0.0668   14.7788   -4.7327 H   0  0  0  0  0  0  0  0  0  0  0  0
    0.9180   13.2765   -4.7327 H   0  0  0  0  0  0  0  0  0  0  0  0
    2.8214   15.0017   -3.4533 H   0  0  0  0  0  0  0  0  0  0  0  0
    1.3777   16.0571   -3.9403 H   0  0  0  0  0  0  0  0  0  0  0  0
    2.7953   15.9851   -1.2624 H   0  0  0  0  0  0  0  0  0  0  0  0
    2.7279   17.3300   -2.4678 H   0  0  0  0  0  0  0  0  0  0  0  0
   -0.6316   18.4472   -2.0128 H   0  0  0  0  0  0  0  0  0  0  0  0
    0.7805   18.3461   -3.1185 H   0  0  0  0  0  0  0  0  0  0  0  0
   -0.4553   17.0425   -3.1185 H   0  0  0  0  0  0  0  0  0  0  0  0
  1  2  1  0
  2  3  1  0
  3  4  1  0
  4  5  1  0
  5  6  1  0
  6  7  1  0
  7  8  1  0
  7  9  1  0
  2 10  1  0
 10 11  1  0
 11 12  1  0
 12 13  1  0
 13 14  1  1
 13 15  1  0
 15 16  1  0
 16 17  1  0
 17 18  2  0
 18 19  1  0
 19 20  1  0
 20 21  1  0
 21 22  1  0
 22 23  1  0
 22 24  1  0
 24 25  1  0
 24 26  1  0
 19 27  1  0
 27 28  1  6
 27 29  1  0
 29 30  1  0
 30 31  1  0
 31 32  1  6
  7  5  1  0
 31 10  1  0
 31 13  1  0
 27 15  1  0
 24 18  1  0
  1 33  1  0
  1 34  1  0
  1 35  1  0
  2 36  1  6
  3 37  1  0
  3 38  1  0
  4 39  1  0
  4 40  1  0
  5 41  1  6
  8 42  1  0
  8 43  1  0
  8 44  1  0
  9 45  1  0
  9 46  1  0
  9 47  1  0
 10 48  1  1
 11 49  1  0
 11 50  1  0
 12 51  1  0
 12 52  1  0
 14 53  1  0
 14 54  1  0
 14 55  1  0
 15 56  1  6
 16 57  1  0
 16 58  1  0
 17 59  1  0
 19 60  1  1
 20 61  1  0
 20 62  1  0
 21 63  1  0
 21 64  1  0
 22 65  1  1
 23 66  1  0
 25 67  1  0
 25 68  1  0
 25 69  1  0
 26 70  1  0
 26 71  1  0
 26 72  1  0
 28 73  1  0
 28 74  1  0
 28 75  1  0
 29 76  1  0
 29 77  1  0
 30 78  1  0
 30 79  1  0
 32 80  1  0
 32 81  1  0
 32 82  1  0
M  END
>  <meeko>  (11) 
{"is_sidechain": [false], "intermolecular_energy": 2.731, "internal_energy": -0.839}

$$$$
EPH_relaxed_0001_pdb2pqr_Repair_72_r2_0001_out
     RDKit          3D

 82 86  0  0  0  0  0  0  0  0999 V2000
   -3.7250    7.2090   -3.4200 C   0  0  0  0  0  0  0  0  0  0  0  0
   -3.7510    7.2830   -1.8900 C   0  0  2  0  0  0  0  0  0  0  0  0
   -5.1670    7.0580   -1.3220 C   0  0  0  0  0  0  0  0  0  0  0  0
   -6.2830    7.2890   -2.3440 C   0  0  0  0  0  0  0  0  0  0  0  0
   -7.6100    7.4940   -1.6780 C   0  0  2  0  0  0  0  0  0  0  0  0
   -8.1820    6.3100   -1.1060 O   0  0  0  0  0  0  0  0  0  0  0  0
   -8.9070    6.9020   -2.1970 C   0  0  0  0  0  0  0  0  0  0  0  0
   -8.9410    6.0590   -3.4330 C   0  0  0  0  0  0  0  0  0  0  0  0
  -10.1990    7.5380   -1.7870 C   0  0  0  0  0  0  0  0  0  0  0  0
   -3.2110    8.6310   -1.4260 C   0  0  1  0  0  0  0  0  0  0  0  0
   -3.8340    9.0930   -0.0820 C   0  0  0  0  0  0  0  0  0  0  0  0
   -2.7230    9.8500    0.6900 C   0  0  0  0  0  0  0  0  0  0  0  0
   -1.6110   10.0860   -0.3590 C   0  0  1  0  0  0  0  0  0  0  0  0
   -2.0800   11.3390   -1.1640 C   0  0  0  0  0  0  0  0  0  0  0  0
   -0.1620   10.2680    0.1980 C   0  0  2  0  0  0  0  0  0  0  0  0
    0.0380   11.4900    1.1110 C   0  0  0  0  0  0  0  0  0  0  0  0
    0.4510   12.7450    0.4150 C   0  0  0  0  0  0  0  0  0  0  0  0
    0.9280   12.8210   -0.8420 C   0  0  0  0  0  0  0  0  0  0  0  0
    1.1860   11.5530   -1.6650 C   0  0  1  0  0  0  0  0  0  0  0  0
    2.5780   11.6490   -2.3420 C   0  0  0  0  0  0  0  0  0  0  0  0
    2.7420   12.9220   -3.1660 C   0  0  0  0  0  0  0  0  0  0  0  0
    2.5350   14.1620   -2.3000 C   0  0  2  0  0  0  0  0  0  0  0  0
    3.6000   14.2410   -1.3460 O   0  0  0  0  0  0  0  0  0  0  0  0
    1.1690   14.1720   -1.5590 C   0  0  0  0  0  0  0  0  0  0  0  0
    0.0250   14.3910   -2.5810 C   0  0  0  0  0  0  0  0  0  0  0  0
    1.1470   15.4030   -0.6140 C   0  0  0  0  0  0  0  0  0  0  0  0
    0.9720   10.1750   -0.9010 C   0  0  1  0  0  0  0  0  0  0  0  0
    2.2810    9.7700   -0.1580 C   0  0  0  0  0  0  0  0  0  0  0  0
    0.6910    9.0410   -1.9570 C   0  0  0  0  0  0  0  0  0  0  0  0
   -0.7760    8.8310   -2.3780 C   0  0  0  0  0  0  0  0  0  0  0  0
   -1.6890    8.7310   -1.1530 C   0  0  2  0  0  0  0  0  0  0  0  0
   -1.2560    7.4670   -0.3350 C   0  0  0  0  0  0  0  0  0  0  0  0
   -3.3754    6.2141   -3.7331 H   0  0  0  0  0  0  0  0  0  0  0  0
   -4.7378    7.3822   -3.8127 H   0  0  0  0  0  0  0  0  0  0  0  0
   -3.0431    7.9776   -3.8127 H   0  0  0  0  0  0  0  0  0  0  0  0
   -3.1102    6.4746   -1.5081 H   0  0  0  0  0  0  0  0  0  0  0  0
   -5.2358    6.0213   -0.9609 H   0  0  0  0  0  0  0  0  0  0  0  0
   -5.3111    7.7931   -0.5164 H   0  0  0  0  0  0  0  0  0  0  0  0
   -6.0415    8.1814   -2.9401 H   0  0  0  0  0  0  0  0  0  0  0  0
   -6.3538    6.3961   -2.9825 H   0  0  0  0  0  0  0  0  0  0  0  0
   -7.3314    8.5170   -1.3849 H   0  0  0  0  0  0  0  0  0  0  0  0
   -8.9838    4.9966   -3.1512 H   0  0  0  0  0  0  0  0  0  0  0  0
   -9.8295    6.3166   -4.0282 H   0  0  0  0  0  0  0  0  0  0  0  0
   -8.0347    6.2442   -4.0282 H   0  0  0  0  0  0  0  0  0  0  0  0
  -10.2606    7.5683   -0.6891 H   0  0  0  0  0  0  0  0  0  0  0  0
  -10.2461    8.5623   -2.1853 H   0  0  0  0  0  0  0  0  0  0  0  0
  -11.0395    6.9507   -2.1853 H   0  0  0  0  0  0  0  0  0  0  0  0
   -3.4784    9.2472   -2.2971 H   0  0  0  0  0  0  0  0  0  0  0  0
   -4.6872    9.7614   -0.2700 H   0  0  0  0  0  0  0  0  0  0  0  0
   -4.2026    8.2341    0.4981 H   0  0  0  0  0  0  0  0  0  0  0  0
   -3.1020   10.8076    1.0764 H   0  0  0  0  0  0  0  0  0  0  0  0
   -2.3613    9.2848    1.5616 H   0  0  0  0  0  0  0  0  0  0  0  0
   -2.3776   12.1340   -0.4644 H   0  0  0  0  0  0  0  0  0  0  0  0
   -1.2553   11.6977   -1.7974 H   0  0  0  0  0  0  0  0  0  0  0  0
   -2.9376   11.0680   -1.7974 H   0  0  0  0  0  0  0  0  0  0  0  0
   -0.0480    9.3882    0.8484 H   0  0  0  0  0  0  0  0  0  0  0  0
   -0.9120   11.6858    1.6298 H   0  0  0  0  0  0  0  0  0  0  0  0
    0.8649   11.2315    1.7889 H   0  0  0  0  0  0  0  0  0  0  0  0
    0.3577   13.6864    0.9763 H   0  0  0  0  0  0  0  0  0  0  0  0
    0.3992   11.5237   -2.4331 H   0  0  0  0  0  0  0  0  0  0  0  0
    3.3519   11.6329   -1.5605 H   0  0  0  0  0  0  0  0  0  0  0  0
    2.6756   10.7936   -3.0267 H   0  0  0  0  0  0  0  0  0  0  0  0
    3.7553   12.9463   -3.5934 H   0  0  0  0  0  0  0  0  0  0  0  0
    1.9873   12.9223   -3.9663 H   0  0  0  0  0  0  0  0  0  0  0  0
    2.5346   15.0348   -2.9694 H   0  0  0  0  0  0  0  0  0  0  0  0
    3.9550   13.3440   -1.2280 H   0  0  0  0  0  0  0  0  0  0  0  0
   -0.9175   14.5714   -2.0433 H   0  0  0  0  0  0  0  0  0  0  0  0
    0.2591   15.2606   -3.2126 H   0  0  0  0  0  0  0  0  0  0  0  0
   -0.0787   13.4964   -3.2126 H   0  0  0  0  0  0  0  0  0  0  0  0
    1.1531   15.0625    0.4319 H   0  0  0  0  0  0  0  0  0  0  0  0
    2.0342   16.0255   -0.8021 H   0  0  0  0  0  0  0  0  0  0  0  0
    0.2382   15.9934   -0.8021 H   0  0  0  0  0  0  0  0  0  0  0  0
    2.1167    9.8208    0.9285 H   0  0  0  0  0  0  0  0  0  0  0  0
    2.5596    8.7437   -0.4391 H   0  0  0  0  0  0  0  0  0  0  0  0
    3.0905   10.4597   -0.4391 H   0  0  0  0  0  0  0  0  0  0  0  0
    1.2662    9.2807   -2.8635 H   0  0  0  0  0  0  0  0  0  0  0  0
    0.9839    8.1051   -1.4587 H   0  0  0  0  0  0  0  0  0  0  0  0
   -1.0976    9.6808   -2.9980 H   0  0  0  0  0  0  0  0  0  0  0  0
   -0.8468    7.8915   -2.9457 H   0  0  0  0  0  0  0  0  0  0  0  0
   -1.3301    7.6834    0.7409 H   0  0  0  0  0  0  0  0  0  0  0  0
   -1.9166    6.6240   -0.5858 H   0  0  0  0  0  0  0  0  0  0  0  0
   -0.2172    7.2061   -0.5858 H   0  0  0  0  0  0  0  0  0  0  0  0
  1  2  1  0
  2  3  1  0
  3  4  1  0
  4  5  1  0
  5  6  1  0
  6  7  1  0
  7  8  1  0
  7  9  1  0
  2 10  1  0
 10 11  1  0
 11 12  1  0
 12 13  1  0
 13 14  1  6
 13 15  1  0
 15 16  1  0
 16 17  1  0
 17 18  2  0
 18 19  1  0
 19 20  1  0
 20 21  1  0
 21 22  1  0
 22 23  1  0
 22 24  1  0
 24 25  1  0
 24 26  1  0
 19 27  1  0
 27 28  1  1
 27 29  1  0
 29 30  1  0
 30 31  1  0
 31 32  1  1
  7  5  1  0
 31 10  1  0
 31 13  1  0
 27 15  1  0
 24 18  1  0
  1 33  1  0
  1 34  1  0
  1 35  1  0
  2 36  1  1
  3 37  1  0
  3 38  1  0
  4 39  1  0
  4 40  1  0
  5 41  1  1
  8 42  1  0
  8 43  1  0
  8 44  1  0
  9 45  1  0
  9 46  1  0
  9 47  1  0
 10 48  1  6
 11 49  1  0
 11 50  1  0
 12 51  1  0
 12 52  1  0
 14 53  1  0
 14 54  1  0
 14 55  1  0
 15 56  1  1
 16 57  1  0
 16 58  1  0
 17 59  1  0
 19 60  1  6
 20 61  1  0
 20 62  1  0
 21 63  1  0
 21 64  1  0
 22 65  1  6
 23 66  1  0
 25 67  1  0
 25 68  1  0
 25 69  1  0
 26 70  1  0
 26 71  1  0
 26 72  1  0
 28 73  1  0
 28 74  1  0
 28 75  1  0
 29 76  1  0
 29 77  1  0
 30 78  1  0
 30 79  1  0
 32 80  1  0
 32 81  1  0
 32 82  1  0
M  END
>  <meeko>  (12) 
{"is_sidechain": [false], "intermolecular_energy": 2.731, "internal_energy": -0.839}

$$$$
EPH_relaxed_0001_pdb2pqr_Repair_72_r2_0001_out
     RDKit          3D

 82 86  0  0  0  0  0  0  0  0999 V2000
   -0.8680   16.3520   -5.8510 C   0  0  0  0  0  0  0  0  0  0  0  0
    0.2280   15.6600   -6.6670 C   0  0  2  0  0  0  0  0  0  0  0  0
   -0.1700   15.4900   -8.1470 C   0  0  0  0  0  0  0  0  0  0  0  0
    0.4790   16.5160   -9.0800 C   0  0  0  0  0  0  0  0  0  0  0  0
    1.8760   16.1190   -9.4540 C   0  0  2  0  0  0  0  0  0  0  0  0
    2.3500   16.6850  -10.6830 O   0  0  0  0  0  0  0  0  0  0  0  0
    2.2070   15.2550  -10.6560 C   0  0  0  0  0  0  0  0  0  0  0  0
    1.1350   14.7340  -11.5610 C   0  0  0  0  0  0  0  0  0  0  0  0
    3.5100   14.5190  -10.6710 C   0  0  0  0  0  0  0  0  0  0  0  0
    0.5510   14.3020   -6.0560 C   0  0  1  0  0  0  0  0  0  0  0  0
    1.8300   13.6630   -6.6600 C   0  0  0  0  0  0  0  0  0  0  0  0
    2.5290   12.8900   -5.5120 C   0  0  0  0  0  0  0  0  0  0  0  0
    1.4730   12.8290   -4.3830 C   0  0  1  0  0  0  0  0  0  0  0  0
    0.5330   11.6470   -4.7770 C   0  0  0  0  0  0  0  0  0  0  0  0
    2.0250   12.6680   -2.9290 C   0  0  2  0  0  0  0  0  0  0  0  0
    2.8030   11.3670   -2.6670 C   0  0  0  0  0  0  0  0  0  0  0  0
    1.9810   10.2200   -2.1810 C   0  0  0  0  0  0  0  0  0  0  0  0
    0.7290   10.3060   -1.6930 C   0  0  0  0  0  0  0  0  0  0  0  0
    0.0500   11.6680   -1.5020 C   0  0  1  0  0  0  0  0  0  0  0  0
   -0.6170   11.7220   -0.1020 C   0  0  0  0  0  0  0  0  0  0  0  0
   -1.5710   10.5550    0.1370 C   0  0  0  0  0  0  0  0  0  0  0  0
   -0.8460    9.2200   -0.0050 C   0  0  2  0  0  0  0  0  0  0  0  0
    0.1060    9.0970    1.0560 O   0  0  0  0  0  0  0  0  0  0  0  0
   -0.1270    9.0550   -1.3730 C   0  0  0  0  0  0  0  0  0  0  0  0
   -1.1790    8.8860   -2.4970 C   0  0  0  0  0  0  0  0  0  0  0  0
    0.6810    7.7300   -1.3320 C   0  0  0  0  0  0  0  0  0  0  0  0
    0.9550   12.9410   -1.7960 C   0  0  1  0  0  0  0  0  0  0  0  0
    1.7520   13.3340   -0.5150 C   0  0  0  0  0  0  0  0  0  0  0  0
    0.0240   14.1660   -2.1340 C   0  0  0  0  0  0  0  0  0  0  0  0
   -0.3890   14.3390   -3.6080 C   0  0  0  0  0  0  0  0  0  0  0  0
    0.8290   14.2560   -4.5320 C   0  0  2  0  0  0  0  0  0  0  0  0
    1.7830   15.4460   -4.1750 C   0  0  0  0  0  0  0  0  0  0  0  0
   -0.6632   16.2227   -4.7780 H   0  0  0  0  0  0  0  0  0  0  0  0
   -0.8845   17.4246   -6.0945 H   0  0  0  0  0  0  0  0  0  0  0  0
   -1.8435   15.9057   -6.0945 H   0  0  0  0  0  0  0  0  0  0  0  0
    1.1197   16.3034   -6.6365 H   0  0  0  0  0  0  0  0  0  0  0  0
    0.1307   14.4838   -8.4742 H   0  0  0  0  0  0  0  0  0  0  0  0
   -1.2576   15.6430   -8.2073 H   0  0  0  0  0  0  0  0  0  0  0  0
   -0.1255   16.5982   -9.9953 H   0  0  0  0  0  0  0  0  0  0  0  0
    0.5259   17.4794   -8.5511 H   0  0  0  0  0  0  0  0  0  0  0  0
    2.1654   16.0510   -8.3949 H   0  0  0  0  0  0  0  0  0  0  0  0
    0.3083   14.3322  -10.9568 H   0  0  0  0  0  0  0  0  0  0  0  0
    0.7618   15.5512  -12.1957 H   0  0  0  0  0  0  0  0  0  0  0  0
    1.5470   13.9356  -12.1957 H   0  0  0  0  0  0  0  0  0  0  0  0
    3.8383   14.3336   -9.6376 H   0  0  0  0  0  0  0  0  0  0  0  0
    3.3830   13.5592  -11.1932 H   0  0  0  0  0  0  0  0  0  0  0  0
    4.2664   15.1232  -11.1932 H   0  0  0  0  0  0  0  0  0  0  0  0
   -0.3845   13.7703   -6.2844 H   0  0  0  0  0  0  0  0  0  0  0  0
    1.5608   12.9723   -7.4727 H   0  0  0  0  0  0  0  0  0  0  0  0
    2.4948   14.4319   -7.0804 H   0  0  0  0  0  0  0  0  0  0  0  0
    2.8070   11.8771   -5.8388 H   0  0  0  0  0  0  0  0  0  0  0  0
    3.4597   13.3779   -5.1868 H   0  0  0  0  0  0  0  0  0  0  0  0
    0.1492   11.1644   -3.8661 H   0  0  0  0  0  0  0  0  0  0  0  0
   -0.3093   12.0308   -5.3713 H   0  0  0  0  0  0  0  0  0  0  0  0
    1.0966   10.9127   -5.3713 H   0  0  0  0  0  0  0  0  0  0  0  0
    2.7678   13.4769   -2.8673 H   0  0  0  0  0  0  0  0  0  0  0  0
    3.2862   11.0645   -3.6078 H   0  0  0  0  0  0  0  0  0  0  0  0
    3.5148   11.5951   -1.8599 H   0  0  0  0  0  0  0  0  0  0  0  0
    2.4365    9.2197   -2.2252 H   0  0  0  0  0  0  0  0  0  0  0  0
   -0.7193   11.7370   -2.2852 H   0  0  0  0  0  0  0  0  0  0  0  0
    0.1709   11.6962    0.6652 H   0  0  0  0  0  0  0  0  0  0  0  0
   -1.2047   12.6503   -0.0477 H   0  0  0  0  0  0  0  0  0  0  0  0
   -1.9872   10.6324    1.1523 H   0  0  0  0  0  0  0  0  0  0  0  0
   -2.3748   10.5995   -0.6127 H   0  0  0  0  0  0  0  0  0  0  0  0
   -1.6053    8.4258    0.0480 H   0  0  0  0  0  0  0  0  0  0  0  0
    0.3120    9.9930    1.3710 H   0  0  0  0  0  0  0  0  0  0  0  0
   -2.1712    8.7266   -2.0496 H   0  0  0  0  0  0  0  0  0  0  0  0
   -1.1990    9.7925   -3.1198 H   0  0  0  0  0  0  0  0  0  0  0  0
   -0.9140    8.0189   -3.1198 H   0  0  0  0  0  0  0  0  0  0  0  0
    0.8576    7.4404   -0.2856 H   0  0  0  0  0  0  0  0  0  0  0  0
    0.1122    6.9378   -1.8407 H   0  0  0  0  0  0  0  0  0  0  0  0
    1.6458    7.8730   -1.8407 H   0  0  0  0  0  0  0  0  0  0  0  0
    1.1752   13.0496    0.3774 H   0  0  0  0  0  0  0  0  0  0  0  0
    2.7188   12.8093   -0.5093 H   0  0  0  0  0  0  0  0  0  0  0  0
    1.9244   14.4204   -0.5093 H   0  0  0  0  0  0  0  0  0  0  0  0
   -0.8962   14.0581   -1.5411 H   0  0  0  0  0  0  0  0  0  0  0  0
    0.6236   15.0572   -1.8967 H   0  0  0  0  0  0  0  0  0  0  0  0
   -1.1002   13.5445   -3.8780 H   0  0  0  0  0  0  0  0  0  0  0  0
   -0.8535   15.3289   -3.7281 H   0  0  0  0  0  0  0  0  0  0  0  0
    1.8585   15.5401   -3.0816 H   0  0  0  0  0  0  0  0  0  0  0  0
    2.7810   15.2550   -4.5963 H   0  0  0  0  0  0  0  0  0  0  0  0
    1.3795   16.3785   -4.5963 H   0  0  0  0  0  0  0  0  0  0  0  0
  1  2  1  0
  2  3  1  0
  3  4  1  0
  4  5  1  0
  5  6  1  0
  6  7  1  0
  7  8  1  0
  7  9  1  0
  2 10  1  0
 10 11  1  0
 11 12  1  0
 12 13  1  0
 13 14  1  6
 13 15  1  0
 15 16  1  0
 16 17  1  0
 17 18  2  0
 18 19  1  0
 19 20  1  0
 20 21  1  0
 21 22  1  0
 22 23  1  0
 22 24  1  0
 24 25  1  0
 24 26  1  0
 19 27  1  0
 27 28  1  1
 27 29  1  0
 29 30  1  0
 30 31  1  0
 31 32  1  1
  7  5  1  0
 31 10  1  0
 31 13  1  0
 27 15  1  0
 24 18  1  0
  1 33  1  0
  1 34  1  0
  1 35  1  0
  2 36  1  6
  3 37  1  0
  3 38  1  0
  4 39  1  0
  4 40  1  0
  5 41  1  1
  8 42  1  0
  8 43  1  0
  8 44  1  0
  9 45  1  0
  9 46  1  0
  9 47  1  0
 10 48  1  1
 11 49  1  0
 11 50  1  0
 12 51  1  0
 12 52  1  0
 14 53  1  0
 14 54  1  0
 14 55  1  0
 15 56  1  1
 16 57  1  0
 16 58  1  0
 17 59  1  0
 19 60  1  6
 20 61  1  0
 20 62  1  0
 21 63  1  0
 21 64  1  0
 22 65  1  1
 23 66  1  0
 25 67  1  0
 25 68  1  0
 25 69  1  0
 26 70  1  0
 26 71  1  0
 26 72  1  0
 28 73  1  0
 28 74  1  0
 28 75  1  0
 29 76  1  0
 29 77  1  0
 30 78  1  0
 30 79  1  0
 32 80  1  0
 32 81  1  0
 32 82  1  0
M  END
>  <meeko>  (13) 
{"is_sidechain": [false], "intermolecular_energy": 2.731, "internal_energy": -0.839}

$$$$
EPH_relaxed_0001_pdb2pqr_Repair_72_r2_0001_out
     RDKit          3D

 82 86  0  0  0  0  0  0  0  0999 V2000
   -2.2610    7.8330   -2.1180 C   0  0  0  0  0  0  0  0  0  0  0  0
   -2.2360    8.4530   -0.7180 C   0  0  2  0  0  0  0  0  0  0  0  0
   -3.6270    8.4390   -0.0520 C   0  0  0  0  0  0  0  0  0  0  0  0
   -4.7870    8.5380   -1.0460 C   0  0  0  0  0  0  0  0  0  0  0  0
   -5.5270    7.2410   -1.1660 C   0  0  2  0  0  0  0  0  0  0  0  0
   -5.6890    6.7650   -2.5090 O   0  0  0  0  0  0  0  0  0  0  0  0
   -6.8950    7.1150   -1.8100 C   0  0  0  0  0  0  0  0  0  0  0  0
   -7.6040    8.3050   -2.3770 C   0  0  0  0  0  0  0  0  0  0  0  0
   -7.7480    5.9370   -1.4540 C   0  0  0  0  0  0  0  0  0  0  0  0
   -1.7090    9.8810   -0.7910 C   0  0  1  0  0  0  0  0  0  0  0  0
   -1.2760   10.4300    0.5950 C   0  0  0  0  0  0  0  0  0  0  0  0
   -0.0530   11.3500    0.3490 C   0  0  0  0  0  0  0  0  0  0  0  0
   -0.0270   11.5650   -1.1820 C   0  0  1  0  0  0  0  0  0  0  0  0
   -1.0820   12.6840   -1.4480 C   0  0  0  0  0  0  0  0  0  0  0  0
    1.3610   11.9200   -1.8070 C   0  0  2  0  0  0  0  0  0  0  0  0
    1.9770   13.2440   -1.3210 C   0  0  0  0  0  0  0  0  0  0  0  0
    1.6200   14.4470   -2.1290 C   0  0  0  0  0  0  0  0  0  0  0  0
    1.0740   14.4300   -3.3590 C   0  0  0  0  0  0  0  0  0  0  0  0
    0.8500   13.1080   -4.1030 C   0  0  1  0  0  0  0  0  0  0  0  0
    1.3520   13.2440   -5.5640 C   0  0  0  0  0  0  0  0  0  0  0  0
    0.7280   14.4340   -6.2880 C   0  0  0  0  0  0  0  0  0  0  0  0
    1.0210   15.7370   -5.5490 C   0  0  2  0  0  0  0  0  0  0  0  0
    2.4260   16.0010   -5.6200 O   0  0  0  0  0  0  0  0  0  0  0  0
    0.5690   15.7140   -4.0630 C   0  0  0  0  0  0  0  0  0  0  0  0
   -0.9780   15.7310   -3.9890 C   0  0  0  0  0  0  0  0  0  0  0  0
    1.0490   17.0310   -3.3960 C   0  0  0  0  0  0  0  0  0  0  0  0
    1.4100   11.8050   -3.3850 C   0  0  1  0  0  0  0  0  0  0  0  0
    2.9060   11.5870   -3.7690 C   0  0  0  0  0  0  0  0  0  0  0  0
    0.6270   10.5470   -3.9180 C   0  0  0  0  0  0  0  0  0  0  0  0
   -0.6750   10.1770   -3.1830 C   0  0  0  0  0  0  0  0  0  0  0  0
   -0.4560   10.1320   -1.6680 C   0  0  2  0  0  0  0  0  0  0  0  0
    0.5840    9.0000   -1.3680 C   0  0  0  0  0  0  0  0  0  0  0  0
   -2.3052    6.7372   -2.0330 H   0  0  0  0  0  0  0  0  0  0  0  0
   -3.1453    8.1944   -2.6633 H   0  0  0  0  0  0  0  0  0  0  0  0
   -1.3505    8.1220   -2.6633 H   0  0  0  0  0  0  0  0  0  0  0  0
   -1.5658    7.8405   -0.0971 H   0  0  0  0  0  0  0  0  0  0  0  0
   -3.7324    7.5006    0.5121 H   0  0  0  0  0  0  0  0  0  0  0  0
   -3.6821    9.3267    0.5953 H   0  0  0  0  0  0  0  0  0  0  0  0
   -5.4849    9.3160   -0.7029 H   0  0  0  0  0  0  0  0  0  0  0  0
   -4.3717    8.7881   -2.0334 H   0  0  0  0  0  0  0  0  0  0  0  0
   -5.1332    6.9000   -0.1972 H   0  0  0  0  0  0  0  0  0  0  0  0
   -7.9788    8.9340   -1.5561 H   0  0  0  0  0  0  0  0  0  0  0  0
   -6.9056    8.8875   -2.9958 H   0  0  0  0  0  0  0  0  0  0  0  0
   -8.4487    7.9681   -2.9958 H   0  0  0  0  0  0  0  0  0  0  0  0
   -7.8123    5.8482   -0.3595 H   0  0  0  0  0  0  0  0  0  0  0  0
   -8.7566    6.0754   -1.8705 H   0  0  0  0  0  0  0  0  0  0  0  0
   -7.3017    5.0219   -1.8705 H   0  0  0  0  0  0  0  0  0  0  0  0
   -2.5845   10.3786   -1.2336 H   0  0  0  0  0  0  0  0  0  0  0  0
   -2.0972   11.0046    1.0483 H   0  0  0  0  0  0  0  0  0  0  0  0
   -1.0216    9.6101    1.2828 H   0  0  0  0  0  0  0  0  0  0  0  0
   -0.1769   12.3089    0.8736 H   0  0  0  0  0  0  0  0  0  0  0  0
    0.8824   10.9089    0.7238 H   0  0  0  0  0  0  0  0  0  0  0  0
   -1.4511   13.0755   -0.4886 H   0  0  0  0  0  0  0  0  0  0  0  0
   -0.6157   13.4987   -2.0215 H   0  0  0  0  0  0  0  0  0  0  0  0
   -1.9227   12.2665   -2.0215 H   0  0  0  0  0  0  0  0  0  0  0  0
    2.0086   11.1253   -1.4083 H   0  0  0  0  0  0  0  0  0  0  0  0
    1.6410   13.4164   -0.2879 H   0  0  0  0  0  0  0  0  0  0  0  0
    3.0665   13.1259   -1.4156 H   0  0  0  0  0  0  0  0  0  0  0  0
    1.8202   15.4315   -1.6810 H   0  0  0  0  0  0  0  0  0  0  0  0
   -0.2364   12.9360   -4.0961 H   0  0  0  0  0  0  0  0  0  0  0  0
    2.4444   13.3722   -5.5512 H   0  0  0  0  0  0  0  0  0  0  0  0
    1.0581   12.3322   -6.1047 H   0  0  0  0  0  0  0  0  0  0  0  0
    1.1438   14.4953   -7.3045 H   0  0  0  0  0  0  0  0  0  0  0  0
   -0.3618   14.2895   -6.3263 H   0  0  0  0  0  0  0  0  0  0  0  0
    0.4413   16.5322   -6.0406 H   0  0  0  0  0  0  0  0  0  0  0  0
    2.6880   15.9460   -6.5550 H   0  0  0  0  0  0  0  0  0  0  0  0
   -1.2947   15.7345   -2.9356 H   0  0  0  0  0  0  0  0  0  0  0  0
   -1.3591   16.6334   -4.4894 H   0  0  0  0  0  0  0  0  0  0  0  0
   -1.3789   14.8372   -4.4894 H   0  0  0  0  0  0  0  0  0  0  0  0
    1.0098   16.9234   -2.3020 H   0  0  0  0  0  0  0  0  0  0  0  0
    2.0825   17.2439   -3.7067 H   0  0  0  0  0  0  0  0  0  0  0  0
    0.3948   17.8590   -3.7067 H   0  0  0  0  0  0  0  0  0  0  0  0
    3.5103   11.4989   -2.8541 H   0  0  0  0  0  0  0  0  0  0  0  0
    3.0018   10.6654   -4.3619 H   0  0  0  0  0  0  0  0  0  0  0  0
    3.2609   12.4429   -4.3619 H   0  0  0  0  0  0  0  0  0  0  0  0
    0.3726   10.7351   -4.9715 H   0  0  0  0  0  0  0  0  0  0  0  0
    1.3032    9.6954   -3.7522 H   0  0  0  0  0  0  0  0  0  0  0  0
   -1.4442   10.9289   -3.4131 H   0  0  0  0  0  0  0  0  0  0  0  0
   -0.9970    9.1808   -3.5204 H   0  0  0  0  0  0  0  0  0  0  0  0
    0.6931    8.8813   -0.2799 H   0  0  0  0  0  0  0  0  0  0  0  0
    0.2333    8.0542   -1.8067 H   0  0  0  0  0  0  0  0  0  0  0  0
    1.5561    9.2695   -1.8067 H   0  0  0  0  0  0  0  0  0  0  0  0
  1  2  1  0
  2  3  1  0
  3  4  1  0
  4  5  1  0
  5  6  1  0
  6  7  1  0
  7  8  1  0
  7  9  1  0
  2 10  1  0
 10 11  1  0
 11 12  1  0
 12 13  1  0
 13 14  1  1
 13 15  1  0
 15 16  1  0
 16 17  1  0
 17 18  2  0
 18 19  1  0
 19 20  1  0
 20 21  1  0
 21 22  1  0
 22 23  1  0
 22 24  1  0
 24 25  1  0
 24 26  1  0
 19 27  1  0
 27 28  1  6
 27 29  1  0
 29 30  1  0
 30 31  1  0
 31 32  1  6
  7  5  1  0
 31 10  1  0
 31 13  1  0
 27 15  1  0
 24 18  1  0
  1 33  1  0
  1 34  1  0
  1 35  1  0
  2 36  1  1
  3 37  1  0
  3 38  1  0
  4 39  1  0
  4 40  1  0
  5 41  1  1
  8 42  1  0
  8 43  1  0
  8 44  1  0
  9 45  1  0
  9 46  1  0
  9 47  1  0
 10 48  1  6
 11 49  1  0
 11 50  1  0
 12 51  1  0
 12 52  1  0
 14 53  1  0
 14 54  1  0
 14 55  1  0
 15 56  1  1
 16 57  1  0
 16 58  1  0
 17 59  1  0
 19 60  1  6
 20 61  1  0
 20 62  1  0
 21 63  1  0
 21 64  1  0
 22 65  1  6
 23 66  1  0
 25 67  1  0
 25 68  1  0
 25 69  1  0
 26 70  1  0
 26 71  1  0
 26 72  1  0
 28 73  1  0
 28 74  1  0
 28 75  1  0
 29 76  1  0
 29 77  1  0
 30 78  1  0
 30 79  1  0
 32 80  1  0
 32 81  1  0
 32 82  1  0
M  END
>  <meeko>  (14) 
{"is_sidechain": [false], "intermolecular_energy": 2.731, "internal_energy": -0.839}

$$$$
EPH_relaxed_0001_pdb2pqr_Repair_72_r2_0001_out
     RDKit          3D

 82 86  0  0  0  0  0  0  0  0999 V2000
   -0.0210   17.5740   -2.4840 C   0  0  0  0  0  0  0  0  0  0  0  0
   -0.2710   16.6740   -1.2710 C   0  0  2  0  0  0  0  0  0  0  0  0
   -0.3210   17.4740    0.0460 C   0  0  0  0  0  0  0  0  0  0  0  0
    0.4610   18.7890   -0.0030 C   0  0  0  0  0  0  0  0  0  0  0  0
    1.8640   18.6190    0.4970 C   0  0  2  0  0  0  0  0  0  0  0  0
    2.7590   19.6800    0.1390 O   0  0  0  0  0  0  0  0  0  0  0  0
    3.0540   18.3870   -0.4150 C   0  0  0  0  0  0  0  0  0  0  0  0
    2.8960   18.3120   -1.9010 C   0  0  0  0  0  0  0  0  0  0  0  0
    4.2820   17.7510    0.1590 C   0  0  0  0  0  0  0  0  0  0  0  0
    0.8090   15.6010   -1.1880 C   0  0  1  0  0  0  0  0  0  0  0  0
    0.9040   14.9560    0.2200 C   0  0  0  0  0  0  0  0  0  0  0  0
    1.2720   13.4660    0.0050 C   0  0  0  0  0  0  0  0  0  0  0  0
    1.7000   13.3790   -1.4780 C   0  0  1  0  0  0  0  0  0  0  0  0
    3.1790   13.8780   -1.4990 C   0  0  0  0  0  0  0  0  0  0  0  0
    1.5530   11.9800   -2.1600 C   0  0  2  0  0  0  0  0  0  0  0  0
    2.4140   10.8620   -1.5460 C   0  0  0  0  0  0  0  0  0  0  0  0
    3.7710   10.7000   -2.1470 C   0  0  0  0  0  0  0  0  0  0  0  0
    4.1760   11.2240   -3.3190 C   0  0  0  0  0  0  0  0  0  0  0  0
    3.1970   11.9900   -4.2180 C   0  0  1  0  0  0  0  0  0  0  0  0
    3.3500   11.5020   -5.6830 C   0  0  0  0  0  0  0  0  0  0  0  0
    4.7890   11.5880   -6.1810 C   0  0  0  0  0  0  0  0  0  0  0  0
    5.7230   10.7670   -5.2950 C   0  0  2  0  0  0  0  0  0  0  0  0
    5.3990    9.3810   -5.4440 O   0  0  0  0  0  0  0  0  0  0  0  0
    5.6480   11.1630   -3.7940 C   0  0  0  0  0  0  0  0  0  0  0  0
    6.2830   12.5610   -3.5930 C   0  0  0  0  0  0  0  0  0  0  0  0
    6.5300   10.1670   -2.9930 C   0  0  0  0  0  0  0  0  0  0  0  0
    1.6830   12.0100   -3.7370 C   0  0  1  0  0  0  0  0  0  0  0  0
    0.9390   10.7470   -4.2680 C   0  0  0  0  0  0  0  0  0  0  0  0
    0.9570   13.2540   -4.3730 C   0  0  0  0  0  0  0  0  0  0  0  0
    1.0370   14.5790   -3.5920 C   0  0  0  0  0  0  0  0  0  0  0  0
    0.6650   14.3730   -2.1210 C   0  0  2  0  0  0  0  0  0  0  0  0
   -0.8250   13.8920   -2.0670 C   0  0  0  0  0  0  0  0  0  0  0  0
    0.2588   18.5813   -2.1418 H   0  0  0  0  0  0  0  0  0  0  0  0
    0.7943   17.1533   -3.0909 H   0  0  0  0  0  0  0  0  0  0  0  0
   -0.9365   17.6341   -3.0909 H   0  0  0  0  0  0  0  0  0  0  0  0
   -1.2549   16.2015   -1.4074 H   0  0  0  0  0  0  0  0  0  0  0  0
   -1.3725   17.7035    0.2733 H   0  0  0  0  0  0  0  0  0  0  0  0
    0.1488   16.8491    0.8198 H   0  0  0  0  0  0  0  0  0  0  0  0
    0.4940   19.1455   -1.0431 H   0  0  0  0  0  0  0  0  0  0  0  0
   -0.0489   19.5155    0.6469 H   0  0  0  0  0  0  0  0  0  0  0  0
    1.5066   18.0893    1.3924 H   0  0  0  0  0  0  0  0  0  0  0  0
    1.9268   17.8519   -2.1439 H   0  0  0  0  0  0  0  0  0  0  0  0
    2.9374   19.3258   -2.3258 H   0  0  0  0  0  0  0  0  0  0  0  0
    3.7077   17.7031   -2.3258 H   0  0  0  0  0  0  0  0  0  0  0  0
    4.2297   17.7781    1.2574 H   0  0  0  0  0  0  0  0  0  0  0  0
    4.3462   16.7063   -0.1794 H   0  0  0  0  0  0  0  0  0  0  0  0
    5.1723   18.3014   -0.1794 H   0  0  0  0  0  0  0  0  0  0  0  0
    1.6842   16.1979   -1.4844 H   0  0  0  0  0  0  0  0  0  0  0  0
    1.6826   15.4566    0.8143 H   0  0  0  0  0  0  0  0  0  0  0  0
   -0.0470   15.0535    0.7642 H   0  0  0  0  0  0  0  0  0  0  0  0
    2.1005   13.1715    0.6660 H   0  0  0  0  0  0  0  0  0  0  0  0
    0.4342   12.7921    0.2372 H   0  0  0  0  0  0  0  0  0  0  0  0
    3.5396   13.9997   -0.4669 H   0  0  0  0  0  0  0  0  0  0  0  0
    3.8069   13.1420   -2.0224 H   0  0  0  0  0  0  0  0  0  0  0  0
    3.2327   14.8440   -2.0224 H   0  0  0  0  0  0  0  0  0  0  0  0
    0.5103   11.7144   -1.9315 H   0  0  0  0  0  0  0  0  0  0  0  0
    2.5402   11.0793   -0.4751 H   0  0  0  0  0  0  0  0  0  0  0  0
    1.8788    9.9217   -1.7443 H   0  0  0  0  0  0  0  0  0  0  0  0
    4.5023   10.1014   -1.5841 H   0  0  0  0  0  0  0  0  0  0  0  0
    3.4830   13.0497   -4.1448 H   0  0  0  0  0  0  0  0  0  0  0  0
    3.0184   10.4549   -5.7423 H   0  0  0  0  0  0  0  0  0  0  0  0
    2.7369   12.1575   -6.3190 H   0  0  0  0  0  0  0  0  0  0  0  0
    4.8375   11.2022   -7.2100 H   0  0  0  0  0  0  0  0  0  0  0  0
    5.1093   12.6398   -6.1491 H   0  0  0  0  0  0  0  0  0  0  0  0
    6.7531   10.9715   -5.6221 H   0  0  0  0  0  0  0  0  0  0  0  0
    4.8850    9.1130   -4.6630 H   0  0  0  0  0  0  0  0  0  0  0  0
    6.3777   12.7695   -2.5171 H   0  0  0  0  0  0  0  0  0  0  0  0
    7.2789   12.5819   -4.0596 H   0  0  0  0  0  0  0  0  0  0  0  0
    5.6434   13.3247   -4.0596 H   0  0  0  0  0  0  0  0  0  0  0  0
    6.3836   10.3323   -1.9154 H   0  0  0  0  0  0  0  0  0  0  0  0
    6.2432    9.1362   -3.2481 H   0  0  0  0  0  0  0  0  0  0  0  0
    7.5880   10.3270   -3.2481 H   0  0  0  0  0  0  0  0  0  0  0  0
    0.5847   10.1456   -3.4178 H   0  0  0  0  0  0  0  0  0  0  0  0
    0.0798   11.0580   -4.8804 H   0  0  0  0  0  0  0  0  0  0  0  0
    1.6275   10.1463   -4.8804 H   0  0  0  0  0  0  0  0  0  0  0  0
    1.3989   13.4256   -5.3656 H   0  0  0  0  0  0  0  0  0  0  0  0
   -0.1108   12.9899   -4.3831 H   0  0  0  0  0  0  0  0  0  0  0  0
    2.0633   14.9704   -3.6520 H   0  0  0  0  0  0  0  0  0  0  0  0
    0.3261   15.2910   -4.0366 H   0  0  0  0  0  0  0  0  0  0  0  0
   -1.1397   13.7904   -1.0179 H   0  0  0  0  0  0  0  0  0  0  0  0
   -1.4667   14.6286   -2.5726 H   0  0  0  0  0  0  0  0  0  0  0  0
   -0.9148   12.9192   -2.5726 H   0  0  0  0  0  0  0  0  0  0  0  0
  1  2  1  0
  2  3  1  0
  3  4  1  0
  4  5  1  0
  5  6  1  0
  6  7  1  0
  7  8  1  0
  7  9  1  0
  2 10  1  0
 10 11  1  0
 11 12  1  0
 12 13  1  0
 13 14  1  1
 13 15  1  0
 15 16  1  0
 16 17  1  0
 17 18  2  0
 18 19  1  0
 19 20  1  0
 20 21  1  0
 21 22  1  0
 22 23  1  0
 22 24  1  0
 24 25  1  0
 24 26  1  0
 19 27  1  0
 27 28  1  6
 27 29  1  0
 29 30  1  0
 30 31  1  0
 31 32  1  6
  7  5  1  0
 31 10  1  0
 31 13  1  0
 27 15  1  0
 24 18  1  0
  1 33  1  0
  1 34  1  0
  1 35  1  0
  2 36  1  6
  3 37  1  0
  3 38  1  0
  4 39  1  0
  4 40  1  0
  5 41  1  1
  8 42  1  0
  8 43  1  0
  8 44  1  0
  9 45  1  0
  9 46  1  0
  9 47  1  0
 10 48  1  6
 11 49  1  0
 11 50  1  0
 12 51  1  0
 12 52  1  0
 14 53  1  0
 14 54  1  0
 14 55  1  0
 15 56  1  6
 16 57  1  0
 16 58  1  0
 17 59  1  0
 19 60  1  6
 20 61  1  0
 20 62  1  0
 21 63  1  0
 21 64  1  0
 22 65  1  6
 23 66  1  0
 25 67  1  0
 25 68  1  0
 25 69  1  0
 26 70  1  0
 26 71  1  0
 26 72  1  0
 28 73  1  0
 28 74  1  0
 28 75  1  0
 29 76  1  0
 29 77  1  0
 30 78  1  0
 30 79  1  0
 32 80  1  0
 32 81  1  0
 32 82  1  0
M  END
>  <meeko>  (15) 
{"is_sidechain": [false], "intermolecular_energy": 2.731, "internal_energy": -0.839}

$$$$
EPH_relaxed_0001_pdb2pqr_Repair_72_r2_0001_out
     RDKit          3D

 82 86  0  0  0  0  0  0  0  0999 V2000
    0.2110    9.2930   -2.4280 C   0  0  0  0  0  0  0  0  0  0  0  0
    1.2160   10.3530   -2.8880 C   0  0  2  0  0  0  0  0  0  0  0  0
    2.6440    9.7850   -3.0070 C   0  0  0  0  0  0  0  0  0  0  0  0
    3.5820   10.6520   -3.8520 C   0  0  0  0  0  0  0  0  0  0  0  0
    4.9450   10.7560   -3.2370 C   0  0  2  0  0  0  0  0  0  0  0  0
    5.6050   12.0100   -3.4520 O   0  0  0  0  0  0  0  0  0  0  0  0
    6.2230   10.8590   -4.0480 C   0  0  0  0  0  0  0  0  0  0  0  0
    6.2000   10.8620   -5.5440 C   0  0  0  0  0  0  0  0  0  0  0  0
    7.5150   10.4650   -3.4010 C   0  0  0  0  0  0  0  0  0  0  0  0
    1.2030   11.5340   -1.9250 C   0  0  1  0  0  0  0  0  0  0  0  0
    2.2300   11.3760   -0.7720 C   0  0  0  0  0  0  0  0  0  0  0  0
    2.7650   12.7950   -0.4520 C   0  0  0  0  0  0  0  0  0  0  0  0
    1.7990   13.7520   -1.1890 C   0  0  1  0  0  0  0  0  0  0  0  0
    0.5580   13.8710   -0.2500 C   0  0  0  0  0  0  0  0  0  0  0  0
    2.3730   15.1560   -1.5680 C   0  0  2  0  0  0  0  0  0  0  0  0
    2.7930   16.0330   -0.3760 C   0  0  0  0  0  0  0  0  0  0  0  0
    1.7260   16.9270    0.1650 C   0  0  0  0  0  0  0  0  0  0  0  0
    0.5730   17.2330   -0.4580 C   0  0  0  0  0  0  0  0  0  0  0  0
    0.2910   16.7390   -1.8820 C   0  0  1  0  0  0  0  0  0  0  0  0
   -0.2550   17.9120   -2.7390 C   0  0  0  0  0  0  0  0  0  0  0  0
   -1.4680   18.5850   -2.1040 C   0  0  0  0  0  0  0  0  0  0  0  0
   -1.1320   19.1140   -0.7120 C   0  0  2  0  0  0  0  0  0  0  0  0
   -0.1860   20.1810   -0.8410 O   0  0  0  0  0  0  0  0  0  0  0  0
   -0.5630   18.0230    0.2380 C   0  0  0  0  0  0  0  0  0  0  0  0
   -1.6870   17.0270    0.6170 C   0  0  0  0  0  0  0  0  0  0  0  0
   -0.1340   18.7170    1.5590 C   0  0  0  0  0  0  0  0  0  0  0  0
    1.4820   15.9640   -2.5960 C   0  0  1  0  0  0  0  0  0  0  0  0
    2.4290   16.9810   -3.3040 C   0  0  0  0  0  0  0  0  0  0  0  0
    0.8910   15.0450   -3.7290 C   0  0  0  0  0  0  0  0  0  0  0  0
    0.4520   13.6270   -3.3140 C   0  0  0  0  0  0  0  0  0  0  0  0
    1.5480   12.9280   -2.5050 C   0  0  2  0  0  0  0  0  0  0  0  0
    2.8030   12.7740   -3.4310 C   0  0  0  0  0  0  0  0  0  0  0  0
    0.1847    9.2653   -1.3287 H   0  0  0  0  0  0  0  0  0  0  0  0
   -0.7886    9.5441   -2.8125 H   0  0  0  0  0  0  0  0  0  0  0  0
    0.5150    8.3082   -2.8125 H   0  0  0  0  0  0  0  0  0  0  0  0
    0.9094   10.6878   -3.8900 H   0  0  0  0  0  0  0  0  0  0  0  0
    3.0685    9.6974   -1.9960 H   0  0  0  0  0  0  0  0  0  0  0  0
    2.5621    8.8118   -3.5131 H   0  0  0  0  0  0  0  0  0  0  0  0
    3.6756   10.2051   -4.8528 H   0  0  0  0  0  0  0  0  0  0  0  0
    3.1541   11.6637   -3.9105 H   0  0  0  0  0  0  0  0  0  0  0  0
    4.6474   10.0956   -2.4092 H   0  0  0  0  0  0  0  0  0  0  0  0
    5.1661   10.9969   -5.8945 H   0  0  0  0  0  0  0  0  0  0  0  0
    6.8247   11.6863   -5.9187 H   0  0  0  0  0  0  0  0  0  0  0  0
    6.5923    9.9051   -5.9187 H   0  0  0  0  0  0  0  0  0  0  0  0
    7.4028   10.4992   -2.3073 H   0  0  0  0  0  0  0  0  0  0  0  0
    7.7836    9.4441   -3.7103 H   0  0  0  0  0  0  0  0  0  0  0  0
    8.3076   11.1623   -3.7103 H   0  0  0  0  0  0  0  0  0  0  0  0
    0.1483   11.5065   -1.6137 H   0  0  0  0  0  0  0  0  0  0  0  0
    1.7408   10.9467    0.1148 H   0  0  0  0  0  0  0  0  0  0  0  0
    3.0489   10.7014   -1.0623 H   0  0  0  0  0  0  0  0  0  0  0  0
    2.7452   12.9821    0.6318 H   0  0  0  0  0  0  0  0  0  0  0  0
    3.8090   12.9289   -0.7715 H   0  0  0  0  0  0  0  0  0  0  0  0
    0.8876   13.8394    0.7990 H   0  0  0  0  0  0  0  0  0  0  0  0
    0.0416   14.8228   -0.4436 H   0  0  0  0  0  0  0  0  0  0  0  0
   -0.1298   13.0347   -0.4436 H   0  0  0  0  0  0  0  0  0  0  0  0
    3.3060   14.8966   -2.0898 H   0  0  0  0  0  0  0  0  0  0  0  0
    3.1232   15.3680    0.4356 H   0  0  0  0  0  0  0  0  0  0  0  0
    3.5856   16.6972   -0.7510 H   0  0  0  0  0  0  0  0  0  0  0  0
    1.8969   17.3728    1.1560 H   0  0  0  0  0  0  0  0  0  0  0  0
   -0.4775   15.9578   -1.7860 H   0  0  0  0  0  0  0  0  0  0  0  0
    0.5413   18.6613   -2.8593 H   0  0  0  0  0  0  0  0  0  0  0  0
   -0.5715   17.4986   -3.7080 H   0  0  0  0  0  0  0  0  0  0  0  0
   -1.7886   19.4233   -2.7400 H   0  0  0  0  0  0  0  0  0  0  0  0
   -2.2738   17.8418   -2.0121 H   0  0  0  0  0  0  0  0  0  0  0  0
   -2.0697   19.4664   -0.2576 H   0  0  0  0  0  0  0  0  0  0  0  0
    0.4250   20.1240   -0.0870 H   0  0  0  0  0  0  0  0  0  0  0  0
   -1.7632   16.9595    1.7123 H   0  0  0  0  0  0  0  0  0  0  0  0
   -2.6437   17.3793    0.2039 H   0  0  0  0  0  0  0  0  0  0  0  0
   -1.4524   16.0349    0.2039 H   0  0  0  0  0  0  0  0  0  0  0  0
   -0.4966   18.1303    2.4159 H   0  0  0  0  0  0  0  0  0  0  0  0
    0.9633   18.7839    1.5985 H   0  0  0  0  0  0  0  0  0  0  0  0
   -0.5647   19.7284    1.5985 H   0  0  0  0  0  0  0  0  0  0  0  0
    2.9725   17.5646   -2.5464 H   0  0  0  0  0  0  0  0  0  0  0  0
    3.1485   16.4358   -3.9325 H   0  0  0  0  0  0  0  0  0  0  0  0
    1.8339   17.6599   -3.9325 H   0  0  0  0  0  0  0  0  0  0  0  0
    0.0118   15.5565   -4.1479 H   0  0  0  0  0  0  0  0  0  0  0  0
    1.7178   14.8946   -4.4388 H   0  0  0  0  0  0  0  0  0  0  0  0
   -0.4584   13.6974   -2.7006 H   0  0  0  0  0  0  0  0  0  0  0  0
    0.2593   13.0395   -4.2238 H   0  0  0  0  0  0  0  0  0  0  0  0
    3.7048   12.6633   -2.8109 H   0  0  0  0  0  0  0  0  0  0  0  0
    2.6831   11.8838   -4.0660 H   0  0  0  0  0  0  0  0  0  0  0  0
    2.9019   13.6667   -4.0660 H   0  0  0  0  0  0  0  0  0  0  0  0
  1  2  1  0
  2  3  1  0
  3  4  1  0
  4  5  1  0
  5  6  1  0
  6  7  1  0
  7  8  1  0
  7  9  1  0
  2 10  1  0
 10 11  1  0
 11 12  1  0
 12 13  1  0
 13 14  1  1
 13 15  1  0
 15 16  1  0
 16 17  1  0
 17 18  2  0
 18 19  1  0
 19 20  1  0
 20 21  1  0
 21 22  1  0
 22 23  1  0
 22 24  1  0
 24 25  1  0
 24 26  1  0
 19 27  1  0
 27 28  1  6
 27 29  1  0
 29 30  1  0
 30 31  1  0
 31 32  1  6
  7  5  1  0
 31 10  1  0
 31 13  1  0
 27 15  1  0
 24 18  1  0
  1 33  1  0
  1 34  1  0
  1 35  1  0
  2 36  1  6
  3 37  1  0
  3 38  1  0
  4 39  1  0
  4 40  1  0
  5 41  1  1
  8 42  1  0
  8 43  1  0
  8 44  1  0
  9 45  1  0
  9 46  1  0
  9 47  1  0
 10 48  1  1
 11 49  1  0
 11 50  1  0
 12 51  1  0
 12 52  1  0
 14 53  1  0
 14 54  1  0
 14 55  1  0
 15 56  1  6
 16 57  1  0
 16 58  1  0
 17 59  1  0
 19 60  1  1
 20 61  1  0
 20 62  1  0
 21 63  1  0
 21 64  1  0
 22 65  1  1
 23 66  1  0
 25 67  1  0
 25 68  1  0
 25 69  1  0
 26 70  1  0
 26 71  1  0
 26 72  1  0
 28 73  1  0
 28 74  1  0
 28 75  1  0
 29 76  1  0
 29 77  1  0
 30 78  1  0
 30 79  1  0
 32 80  1  0
 32 81  1  0
 32 82  1  0
M  END
>  <meeko>  (16) 
{"is_sidechain": [false], "intermolecular_energy": 2.731, "internal_energy": -0.839}

$$$$
EPH_relaxed_0001_pdb2pqr_Repair_72_r2_0001_out
     RDKit          3D

 82 86  0  0  0  0  0  0  0  0999 V2000
    2.8620   18.3820   -3.1270 C   0  0  0  0  0  0  0  0  0  0  0  0
    2.5870   18.2170   -1.6300 C   0  0  2  0  0  0  0  0  0  0  0  0
    3.5040   19.1090   -0.7690 C   0  0  0  0  0  0  0  0  0  0  0  0
    2.7700   19.8370    0.3600 C   0  0  0  0  0  0  0  0  0  0  0  0
    3.0710   19.2320    1.6980 C   0  0  2  0  0  0  0  0  0  0  0  0
    3.2450   20.1810    2.7590 O   0  0  0  0  0  0  0  0  0  0  0  0
    4.3990   19.3990    2.4120 C   0  0  0  0  0  0  0  0  0  0  0  0
    5.5140   20.1940    1.8090 C   0  0  0  0  0  0  0  0  0  0  0  0
    4.7830   18.3950    3.4540 C   0  0  0  0  0  0  0  0  0  0  0  0
    2.7560   16.7560   -1.2290 C   0  0  1  0  0  0  0  0  0  0  0  0
    3.3750   16.5920    0.1850 C   0  0  0  0  0  0  0  0  0  0  0  0
    2.7220   15.3360    0.8160 C   0  0  0  0  0  0  0  0  0  0  0  0
    2.0070   14.6340   -0.3620 C   0  0  1  0  0  0  0  0  0  0  0  0
    3.1300   13.8360   -1.0950 C   0  0  0  0  0  0  0  0  0  0  0  0
    0.7970   13.7170    0.0120 C   0  0  2  0  0  0  0  0  0  0  0  0
    1.1440   12.5080    0.8990 C   0  0  0  0  0  0  0  0  0  0  0  0
    1.5020   11.2590    0.1640 C   0  0  0  0  0  0  0  0  0  0  0  0
    1.2710   11.0270   -1.1420 C   0  0  0  0  0  0  0  0  0  0  0  0
    0.4990   12.0400   -1.9980 C   0  0  1  0  0  0  0  0  0  0  0  0
   -0.5690   11.2960   -2.8420 C   0  0  0  0  0  0  0  0  0  0  0  0
    0.0270   10.1640   -3.6730 C   0  0  0  0  0  0  0  0  0  0  0  0
    0.7350    9.1470   -2.7820 C   0  0  2  0  0  0  0  0  0  0  0  0
   -0.2400    8.4890   -1.9680 O   0  0  0  0  0  0  0  0  0  0  0  0
    1.8280    9.7830   -1.8770 C   0  0  0  0  0  0  0  0  0  0  0  0
    3.0290   10.2290   -2.7460 C   0  0  0  0  0  0  0  0  0  0  0  0
    2.3650    8.6770   -0.9290 C   0  0  0  0  0  0  0  0  0  0  0  0
   -0.0990   13.2900   -1.2210 C   0  0  1  0  0  0  0  0  0  0  0  0
   -1.5060   12.9380   -0.6490 C   0  0  0  0  0  0  0  0  0  0  0  0
   -0.3170   14.4720   -2.2390 C   0  0  0  0  0  0  0  0  0  0  0  0
    0.8790   15.4140   -2.4760 C   0  0  0  0  0  0  0  0  0  0  0  0
    1.4750   15.8880   -1.1460 C   0  0  2  0  0  0  0  0  0  0  0  0
    0.3740   16.7130   -0.3960 C   0  0  0  0  0  0  0  0  0  0  0  0
    3.7974   18.9433   -3.2683 H   0  0  0  0  0  0  0  0  0  0  0  0
    2.9552   17.3905   -3.5942 H   0  0  0  0  0  0  0  0  0  0  0  0
    2.0310   18.9308   -3.5942 H   0  0  0  0  0  0  0  0  0  0  0  0
    1.5503   18.5358   -1.4468 H   0  0  0  0  0  0  0  0  0  0  0  0
    4.2856   18.4760   -0.3236 H   0  0  0  0  0  0  0  0  0  0  0  0
    3.9179   19.8813   -1.4340 H   0  0  0  0  0  0  0  0  0  0  0  0
    3.0833   20.8914    0.3670 H   0  0  0  0  0  0  0  0  0  0  0  0
    1.6886   19.7480    0.1791 H   0  0  0  0  0  0  0  0  0  0  0  0
    2.4691   18.3432    1.4576 H   0  0  0  0  0  0  0  0  0  0  0  0
    6.1275   20.6315    2.6104 H   0  0  0  0  0  0  0  0  0  0  0  0
    6.1385   19.5362    1.1867 H   0  0  0  0  0  0  0  0  0  0  0  0
    5.0957   20.9988    1.1867 H   0  0  0  0  0  0  0  0  0  0  0  0
    4.6192   18.8233    4.4539 H   0  0  0  0  0  0  0  0  0  0  0  0
    4.1671   17.4911    3.3369 H   0  0  0  0  0  0  0  0  0  0  0  0
    5.8449   18.1328    3.3369 H   0  0  0  0  0  0  0  0  0  0  0  0
    3.3921   16.4105   -2.0572 H   0  0  0  0  0  0  0  0  0  0  0  0
    4.4637   16.4549    0.1083 H   0  0  0  0  0  0  0  0  0  0  0  0
    3.1925   17.4842    0.8020 H   0  0  0  0  0  0  0  0  0  0  0  0
    3.4878   14.6782    1.2529 H   0  0  0  0  0  0  0  0  0  0  0  0
    2.0295   15.5913    1.6316 H   0  0  0  0  0  0  0  0  0  0  0  0
    3.7910   13.3663   -0.3517 H   0  0  0  0  0  0  0  0  0  0  0  0
    2.6751   13.0575   -1.7250 H   0  0  0  0  0  0  0  0  0  0  0  0
    3.7156   14.5217   -1.7250 H   0  0  0  0  0  0  0  0  0  0  0  0
    0.1831   14.3813    0.6381 H   0  0  0  0  0  0  0  0  0  0  0  0
    1.9988   12.7860    1.5331 H   0  0  0  0  0  0  0  0  0  0  0  0
    0.2310   12.2755    1.4668 H   0  0  0  0  0  0  0  0  0  0  0  0
    1.9961   10.4610    0.7377 H   0  0  0  0  0  0  0  0  0  0  0  0
    1.2413   12.5063   -2.6624 H   0  0  0  0  0  0  0  0  0  0  0  0
   -1.3246   10.8747   -2.1626 H   0  0  0  0  0  0  0  0  0  0  0  0
   -1.0114   12.0240   -3.5379 H   0  0  0  0  0  0  0  0  0  0  0  0
   -0.7797    9.6592   -4.2247 H   0  0  0  0  0  0  0  0  0  0  0  0
    0.7622   10.5907   -4.3712 H   0  0  0  0  0  0  0  0  0  0  0  0
    1.2493    8.4321   -3.4411 H   0  0  0  0  0  0  0  0  0  0  0  0
   -0.0680    7.5330   -2.0170 H   0  0  0  0  0  0  0  0  0  0  0  0
    3.8592   10.5373   -2.0936 H   0  0  0  0  0  0  0  0  0  0  0  0
    3.3533    9.3913   -3.3810 H   0  0  0  0  0  0  0  0  0  0  0  0
    2.7279   11.0753   -3.3810 H   0  0  0  0  0  0  0  0  0  0  0  0
    2.2152    8.9855    0.1162 H   0  0  0  0  0  0  0  0  0  0  0  0
    1.8222    7.7387   -1.1158 H   0  0  0  0  0  0  0  0  0  0  0  0
    3.4381    8.5232   -1.1158 H   0  0  0  0  0  0  0  0  0  0  0  0
   -1.4678   12.9476    0.4503 H   0  0  0  0  0  0  0  0  0  0  0  0
   -2.2394   13.6803   -0.9969 H   0  0  0  0  0  0  0  0  0  0  0  0
   -1.8035   11.9378   -0.9969 H   0  0  0  0  0  0  0  0  0  0  0  0
   -0.5898   14.0300   -3.2087 H   0  0  0  0  0  0  0  0  0  0  0  0
   -1.0951   15.1032   -1.7849 H   0  0  0  0  0  0  0  0  0  0  0  0
    1.6520   14.8779   -3.0461 H   0  0  0  0  0  0  0  0  0  0  0  0
    0.5279   16.2930   -3.0364 H   0  0  0  0  0  0  0  0  0  0  0  0
    0.5136   16.6084    0.6901 H   0  0  0  0  0  0  0  0  0  0  0  0
    0.4563   17.7736   -0.6758 H   0  0  0  0  0  0  0  0  0  0  0  0
   -0.6208   16.3361   -0.6758 H   0  0  0  0  0  0  0  0  0  0  0  0
  1  2  1  0
  2  3  1  0
  3  4  1  0
  4  5  1  0
  5  6  1  0
  6  7  1  0
  7  8  1  0
  7  9  1  0
  2 10  1  0
 10 11  1  0
 11 12  1  0
 12 13  1  0
 13 14  1  6
 13 15  1  0
 15 16  1  0
 16 17  1  0
 17 18  2  0
 18 19  1  0
 19 20  1  0
 20 21  1  0
 21 22  1  0
 22 23  1  0
 22 24  1  0
 24 25  1  0
 24 26  1  0
 19 27  1  0
 27 28  1  1
 27 29  1  0
 29 30  1  0
 30 31  1  0
 31 32  1  1
  7  5  1  0
 31 10  1  0
 31 13  1  0
 27 15  1  0
 24 18  1  0
  1 33  1  0
  1 34  1  0
  1 35  1  0
  2 36  1  6
  3 37  1  0
  3 38  1  0
  4 39  1  0
  4 40  1  0
  5 41  1  1
  8 42  1  0
  8 43  1  0
  8 44  1  0
  9 45  1  0
  9 46  1  0
  9 47  1  0
 10 48  1  6
 11 49  1  0
 11 50  1  0
 12 51  1  0
 12 52  1  0
 14 53  1  0
 14 54  1  0
 14 55  1  0
 15 56  1  1
 16 57  1  0
 16 58  1  0
 17 59  1  0
 19 60  1  6
 20 61  1  0
 20 62  1  0
 21 63  1  0
 21 64  1  0
 22 65  1  6
 23 66  1  0
 25 67  1  0
 25 68  1  0
 25 69  1  0
 26 70  1  0
 26 71  1  0
 26 72  1  0
 28 73  1  0
 28 74  1  0
 28 75  1  0
 29 76  1  0
 29 77  1  0
 30 78  1  0
 30 79  1  0
 32 80  1  0
 32 81  1  0
 32 82  1  0
M  END
>  <meeko>  (17) 
{"is_sidechain": [false], "intermolecular_energy": 2.731, "internal_energy": -0.839}

$$$$
EPH_relaxed_0001_pdb2pqr_Repair_72_r2_0001_out
     RDKit          3D

 82 86  0  0  0  0  0  0  0  0999 V2000
    1.4840   10.7200   -4.7050 C   0  0  0  0  0  0  0  0  0  0  0  0
    0.7110   10.5260   -3.3980 C   0  0  2  0  0  0  0  0  0  0  0  0
   -0.4380    9.5100   -3.5480 C   0  0  0  0  0  0  0  0  0  0  0  0
   -0.4010    8.3810   -2.5130 C   0  0  0  0  0  0  0  0  0  0  0  0
    0.0390    8.8760   -1.1690 C   0  0  2  0  0  0  0  0  0  0  0  0
   -0.2860    8.0080   -0.0760 O   0  0  0  0  0  0  0  0  0  0  0  0
   -0.9260    9.2940   -0.0750 C   0  0  0  0  0  0  0  0  0  0  0  0
   -2.4080    9.2370   -0.2770 C   0  0  0  0  0  0  0  0  0  0  0  0
   -0.4340   10.2110    1.0010 C   0  0  0  0  0  0  0  0  0  0  0  0
    0.1640   11.8640   -2.9150 C   0  0  1  0  0  0  0  0  0  0  0  0
   -1.1570   11.7150   -2.1140 C   0  0  0  0  0  0  0  0  0  0  0  0
   -1.1360   12.8040   -1.0100 C   0  0  0  0  0  0  0  0  0  0  0  0
    0.0220   13.7460   -1.4140 C   0  0  1  0  0  0  0  0  0  0  0  0
   -0.5850   14.6840   -2.5030 C   0  0  0  0  0  0  0  0  0  0  0  0
    0.6850   14.5600   -0.2550 C   0  0  2  0  0  0  0  0  0  0  0  0
   -0.2490   15.5460    0.4680 C   0  0  0  0  0  0  0  0  0  0  0  0
   -0.2870   16.9250   -0.1030 C   0  0  0  0  0  0  0  0  0  0  0  0
    0.6060   17.4370   -0.9700 C   0  0  0  0  0  0  0  0  0  0  0  0
    1.8460   16.6360   -1.3890 C   0  0  1  0  0  0  0  0  0  0  0  0
    3.1000   17.5460   -1.3160 C   0  0  0  0  0  0  0  0  0  0  0  0
    2.9370   18.8330   -2.1200 C   0  0  0  0  0  0  0  0  0  0  0  0
    1.7290   19.6290   -1.6350 C   0  0  2  0  0  0  0  0  0  0  0  0
    1.9860   20.0950   -0.3070 O   0  0  0  0  0  0  0  0  0  0  0  0
    0.4070   18.8110   -1.6550 C   0  0  0  0  0  0  0  0  0  0  0  0
   -0.0300   18.5650   -3.1200 C   0  0  0  0  0  0  0  0  0  0  0  0
   -0.7040   19.6830   -1.0110 C   0  0  0  0  0  0  0  0  0  0  0  0
    2.0560   15.2460   -0.6480 C   0  0  1  0  0  0  0  0  0  0  0  0
    2.8410   15.4660    0.6820 C   0  0  0  0  0  0  0  0  0  0  0  0
    2.9550   14.3160   -1.5450 C   0  0  0  0  0  0  0  0  0  0  0  0
    2.2300   13.4470   -2.5900 C   0  0  0  0  0  0  0  0  0  0  0  0
    1.0560   12.6940   -1.9570 C   0  0  2  0  0  0  0  0  0  0  0  0
    1.6380   11.7250   -0.8720 C   0  0  0  0  0  0  0  0  0  0  0  0
    2.5280   10.9820   -4.4781 H   0  0  0  0  0  0  0  0  0  0  0  0
    1.4584    9.7876   -5.2880 H   0  0  0  0  0  0  0  0  0  0  0  0
    1.0211   11.5298   -5.2880 H   0  0  0  0  0  0  0  0  0  0  0  0
    1.4136   10.1212   -2.6547 H   0  0  0  0  0  0  0  0  0  0  0  0
   -1.3923   10.0469   -3.4423 H   0  0  0  0  0  0  0  0  0  0  0  0
   -0.3267    9.0427   -4.5375 H   0  0  0  0  0  0  0  0  0  0  0  0
   -1.4081    7.9482   -2.4214 H   0  0  0  0  0  0  0  0  0  0  0  0
    0.3227    7.6262   -2.8544 H   0  0  0  0  0  0  0  0  0  0  0  0
    0.9131    9.3753   -1.6124 H   0  0  0  0  0  0  0  0  0  0  0  0
   -2.9109    9.2177    0.7011 H   0  0  0  0  0  0  0  0  0  0  0  0
   -2.7356   10.1232   -0.8403 H   0  0  0  0  0  0  0  0  0  0  0  0
   -2.6666    8.3282   -0.8403 H   0  0  0  0  0  0  0  0  0  0  0  0
   -0.6659    9.7787    1.9855 H   0  0  0  0  0  0  0  0  0  0  0  0
    0.6542   10.3394    0.9041 H   0  0  0  0  0  0  0  0  0  0  0  0
   -0.9287   11.1887    0.9041 H   0  0  0  0  0  0  0  0  0  0  0  0
    0.0656   12.3819   -3.8804 H   0  0  0  0  0  0  0  0  0  0  0  0
   -2.0214   11.8650   -2.7776 H   0  0  0  0  0  0  0  0  0  0  0  0
   -1.2419   10.7097   -1.6756 H   0  0  0  0  0  0  0  0  0  0  0  0
   -2.0904   13.3503   -0.9851 H   0  0  0  0  0  0  0  0  0  0  0  0
   -0.9961   12.3776   -0.0057 H   0  0  0  0  0  0  0  0  0  0  0  0
   -1.1209   15.5122   -2.0163 H   0  0  0  0  0  0  0  0  0  0  0  0
    0.2230   15.0885   -3.1303 H   0  0  0  0  0  0  0  0  0  0  0  0
   -1.2851   14.1126   -3.1303 H   0  0  0  0  0  0  0  0  0  0  0  0
    0.9182   13.7760    0.4805 H   0  0  0  0  0  0  0  0  0  0  0  0
   -1.2690   15.1356    0.4331 H   0  0  0  0  0  0  0  0  0  0  0  0
    0.1497   15.6502    1.4879 H   0  0  0  0  0  0  0  0  0  0  0  0
   -1.1148   17.5776    0.2115 H   0  0  0  0  0  0  0  0  0  0  0  0
    1.6706   16.3263   -2.4298 H   0  0  0  0  0  0  0  0  0  0  0  0
    3.2843   17.8085   -0.2638 H   0  0  0  0  0  0  0  0  0  0  0  0
    3.9435   16.9873   -1.7477 H   0  0  0  0  0  0  0  0  0  0  0  0
    3.8425   19.4467   -2.0047 H   0  0  0  0  0  0  0  0  0  0  0  0
    2.7830   18.5699   -3.1769 H   0  0  0  0  0  0  0  0  0  0  0  0
    1.5881   20.4695   -2.3305 H   0  0  0  0  0  0  0  0  0  0  0  0
    2.9340   20.3020   -0.2460 H   0  0  0  0  0  0  0  0  0  0  0  0
   -0.9885   18.0254   -3.1310 H   0  0  0  0  0  0  0  0  0  0  0  0
   -0.1465   19.5301   -3.6348 H   0  0  0  0  0  0  0  0  0  0  0  0
    0.7346   17.9648   -3.6348 H   0  0  0  0  0  0  0  0  0  0  0  0
   -0.6280   19.6233    0.0847 H   0  0  0  0  0  0  0  0  0  0  0  0
   -0.5811   20.7283   -1.3307 H   0  0  0  0  0  0  0  0  0  0  0  0
   -1.6902   19.3153   -1.3307 H   0  0  0  0  0  0  0  0  0  0  0  0
    2.1741   15.2791    1.5366 H   0  0  0  0  0  0  0  0  0  0  0  0
    3.6936   14.7722    0.7236 H   0  0  0  0  0  0  0  0  0  0  0  0
    3.2088   16.5018    0.7236 H   0  0  0  0  0  0  0  0  0  0  0  0
    3.6663   14.9597   -2.0833 H   0  0  0  0  0  0  0  0  0  0  0  0
    3.4163   13.6018   -0.8470 H   0  0  0  0  0  0  0  0  0  0  0  0
    1.8508   14.0936   -3.3951 H   0  0  0  0  0  0  0  0  0  0  0  0
    2.9433   12.7117   -2.9907 H   0  0  0  0  0  0  0  0  0  0  0  0
    1.4044   12.1139    0.1301 H   0  0  0  0  0  0  0  0  0  0  0  0
    1.1891   10.7280   -0.9922 H   0  0  0  0  0  0  0  0  0  0  0  0
    2.7290   11.6528   -0.9922 H   0  0  0  0  0  0  0  0  0  0  0  0
  1  2  1  0
  2  3  1  0
  3  4  1  0
  4  5  1  0
  5  6  1  0
  6  7  1  0
  7  8  1  0
  7  9  1  0
  2 10  1  0
 10 11  1  0
 11 12  1  0
 12 13  1  0
 13 14  1  6
 13 15  1  0
 15 16  1  0
 16 17  1  0
 17 18  2  0
 18 19  1  0
 19 20  1  0
 20 21  1  0
 21 22  1  0
 22 23  1  0
 22 24  1  0
 24 25  1  0
 24 26  1  0
 19 27  1  0
 27 28  1  1
 27 29  1  0
 29 30  1  0
 30 31  1  0
 31 32  1  1
  7  5  1  0
 31 10  1  0
 31 13  1  0
 27 15  1  0
 24 18  1  0
  1 33  1  0
  1 34  1  0
  1 35  1  0
  2 36  1  1
  3 37  1  0
  3 38  1  0
  4 39  1  0
  4 40  1  0
  5 41  1  6
  8 42  1  0
  8 43  1  0
  8 44  1  0
  9 45  1  0
  9 46  1  0
  9 47  1  0
 10 48  1  6
 11 49  1  0
 11 50  1  0
 12 51  1  0
 12 52  1  0
 14 53  1  0
 14 54  1  0
 14 55  1  0
 15 56  1  1
 16 57  1  0
 16 58  1  0
 17 59  1  0
 19 60  1  6
 20 61  1  0
 20 62  1  0
 21 63  1  0
 21 64  1  0
 22 65  1  6
 23 66  1  0
 25 67  1  0
 25 68  1  0
 25 69  1  0
 26 70  1  0
 26 71  1  0
 26 72  1  0
 28 73  1  0
 28 74  1  0
 28 75  1  0
 29 76  1  0
 29 77  1  0
 30 78  1  0
 30 79  1  0
 32 80  1  0
 32 81  1  0
 32 82  1  0
M  END
>  <meeko>  (18) 
{"is_sidechain": [false], "intermolecular_energy": 2.731, "internal_energy": -0.839}

$$$$
EPH_relaxed_0001_pdb2pqr_Repair_72_r2_0001_out
     RDKit          3D

 82 86  0  0  0  0  0  0  0  0999 V2000
    0.9050   14.9020   -2.6370 C   0  0  0  0  0  0  0  0  0  0  0  0
    1.1620   14.2250   -3.9860 C   0  0  2  0  0  0  0  0  0  0  0  0
    0.4490   14.9510   -5.1450 C   0  0  0  0  0  0  0  0  0  0  0  0
    0.9760   14.5650   -6.5300 C   0  0  0  0  0  0  0  0  0  0  0  0
    0.7510   15.6560   -7.5320 C   0  0  2  0  0  0  0  0  0  0  0  0
    0.4170   15.1990   -8.8500 O   0  0  0  0  0  0  0  0  0  0  0  0
    1.6630   15.9030   -8.7190 C   0  0  0  0  0  0  0  0  0  0  0  0
    2.8710   15.0530   -8.9650 C   0  0  0  0  0  0  0  0  0  0  0  0
    1.6600   17.2580   -9.3550 C   0  0  0  0  0  0  0  0  0  0  0  0
    0.7160   12.7690   -3.9310 C   0  0  1  0  0  0  0  0  0  0  0  0
    1.8520   11.7810   -4.3070 C   0  0  0  0  0  0  0  0  0  0  0  0
    1.6550   10.5170   -3.4320 C   0  0  0  0  0  0  0  0  0  0  0  0
    0.2390   10.6770   -2.8300 C   0  0  1  0  0  0  0  0  0  0  0  0
   -0.7320   10.2030   -3.9570 C   0  0  0  0  0  0  0  0  0  0  0  0
   -0.0280    9.9270   -1.4840 C   0  0  2  0  0  0  0  0  0  0  0  0
    0.0820    8.3940   -1.5580 C   0  0  0  0  0  0  0  0  0  0  0  0
   -1.1870    7.6790   -1.8840 C   0  0  0  0  0  0  0  0  0  0  0  0
   -2.4220    8.2120   -1.8290 C   0  0  0  0  0  0  0  0  0  0  0  0
   -2.6410    9.6400   -1.3110 C   0  0  1  0  0  0  0  0  0  0  0  0
   -3.8240    9.6510   -0.3080 C   0  0  0  0  0  0  0  0  0  0  0  0
   -5.0940    9.0410   -0.8930 C   0  0  0  0  0  0  0  0  0  0  0  0
   -4.8510    7.6030   -1.3430 C   0  0  2  0  0  0  0  0  0  0  0  0
   -4.5940    6.7960   -0.1890 O   0  0  0  0  0  0  0  0  0  0  0  0
   -3.6750    7.4650   -2.3490 C   0  0  0  0  0  0  0  0  0  0  0  0
   -4.0790    8.0850   -3.7100 C   0  0  0  0  0  0  0  0  0  0  0  0
   -3.4450    5.9530   -2.6120 C   0  0  0  0  0  0  0  0  0  0  0  0
   -1.3530   10.3770   -0.7440 C   0  0  1  0  0  0  0  0  0  0  0  0
   -1.1600   10.0280    0.7640 C   0  0  0  0  0  0  0  0  0  0  0  0
   -1.5780   11.9330   -0.8140 C   0  0  0  0  0  0  0  0  0  0  0  0
   -1.1830   12.6340   -2.1280 C   0  0  0  0  0  0  0  0  0  0  0  0
    0.2270   12.2260   -2.5640 C   0  0  2  0  0  0  0  0  0  0  0  0
    1.2280   12.7100   -1.4610 C   0  0  0  0  0  0  0  0  0  0  0  0
    1.1678   14.2098   -1.8234 H   0  0  0  0  0  0  0  0  0  0  0  0
    1.5210   15.8100   -2.5592 H   0  0  0  0  0  0  0  0  0  0  0  0
   -0.1584   15.1725   -2.5592 H   0  0  0  0  0  0  0  0  0  0  0  0
    2.2436   14.2750   -4.1802 H   0  0  0  0  0  0  0  0  0  0  0  0
   -0.6227   14.7069   -5.1008 H   0  0  0  0  0  0  0  0  0  0  0  0
    0.6401   16.0266   -5.0166 H   0  0  0  0  0  0  0  0  0  0  0  0
    2.0551   14.3643   -6.4577 H   0  0  0  0  0  0  0  0  0  0  0  0
    0.4308   13.6713   -6.8677 H   0  0  0  0  0  0  0  0  0  0  0  0
    0.3590   16.3244   -6.7513 H   0  0  0  0  0  0  0  0  0  0  0  0
    3.3061   14.7468   -8.0022 H   0  0  0  0  0  0  0  0  0  0  0  0
    2.5803   14.1594   -9.5367 H   0  0  0  0  0  0  0  0  0  0  0  0
    3.6140   15.6284   -9.5367 H   0  0  0  0  0  0  0  0  0  0  0  0
    1.6583   18.0306   -8.5720 H   0  0  0  0  0  0  0  0  0  0  0  0
    2.5579   17.3716   -9.9802 H   0  0  0  0  0  0  0  0  0  0  0  0
    0.7616   17.3676   -9.9802 H   0  0  0  0  0  0  0  0  0  0  0  0
   -0.1213   12.8062   -4.6434 H   0  0  0  0  0  0  0  0  0  0  0  0
    1.7870   11.5174   -5.3730 H   0  0  0  0  0  0  0  0  0  0  0  0
    2.8403   12.2314   -4.1324 H   0  0  0  0  0  0  0  0  0  0  0  0
    1.7155    9.6063   -4.0459 H   0  0  0  0  0  0  0  0  0  0  0  0
    2.4297   10.4208   -2.6570 H   0  0  0  0  0  0  0  0  0  0  0  0
   -1.6328    9.7633   -3.5039 H   0  0  0  0  0  0  0  0  0  0  0  0
   -1.0177   11.0630   -4.5805 H   0  0  0  0  0  0  0  0  0  0  0  0
   -0.2297    9.4488   -4.5805 H   0  0  0  0  0  0  0  0  0  0  0  0
    0.8149   10.2563   -0.8586 H   0  0  0  0  0  0  0  0  0  0  0  0
    0.8220    8.1433   -2.3323 H   0  0  0  0  0  0  0  0  0  0  0  0
    0.3691    8.0604   -0.5499 H   0  0  0  0  0  0  0  0  0  0  0  0
   -1.1062    6.6272   -2.1957 H   0  0  0  0  0  0  0  0  0  0  0  0
   -2.8934   10.2479   -2.1923 H   0  0  0  0  0  0  0  0  0  0  0  0
   -3.5352    9.0756    0.5839 H   0  0  0  0  0  0  0  0  0  0  0  0
   -4.0416   10.7005   -0.0605 H   0  0  0  0  0  0  0  0  0  0  0  0
   -5.8836    9.0500   -0.1272 H   0  0  0  0  0  0  0  0  0  0  0  0
   -5.3990    9.6356   -1.7667 H   0  0  0  0  0  0  0  0  0  0  0  0
   -5.7554    7.2660   -1.8708 H   0  0  0  0  0  0  0  0  0  0  0  0
   -4.3810    5.9000   -0.4980 H   0  0  0  0  0  0  0  0  0  0  0  0
   -4.6720    8.9951   -3.5367 H   0  0  0  0  0  0  0  0  0  0  0  0
   -3.1734    8.3404   -4.2798 H   0  0  0  0  0  0  0  0  0  0  0  0
   -4.6784    7.3597   -4.2798 H   0  0  0  0  0  0  0  0  0  0  0  0
   -3.3642    5.4220   -1.6521 H   0  0  0  0  0  0  0  0  0  0  0  0
   -4.2918    5.5476   -3.1852 H   0  0  0  0  0  0  0  0  0  0  0  0
   -2.5159    5.8177   -3.1852 H   0  0  0  0  0  0  0  0  0  0  0  0
   -1.5998   10.8234    1.3836 H   0  0  0  0  0  0  0  0  0  0  0  0
   -1.6580    9.0726    0.9859 H   0  0  0  0  0  0  0  0  0  0  0  0
   -0.0861    9.9419    0.9859 H   0  0  0  0  0  0  0  0  0  0  0  0
   -2.6483   12.1224   -0.6446 H   0  0  0  0  0  0  0  0  0  0  0  0
   -0.9084   12.3551   -0.0502 H   0  0  0  0  0  0  0  0  0  0  0  0
   -1.8985   12.3532   -2.9149 H   0  0  0  0  0  0  0  0  0  0  0  0
   -1.1986   13.7216   -1.9640 H   0  0  0  0  0  0  0  0  0  0  0  0
    0.8048   12.5054   -0.4665 H   0  0  0  0  0  0  0  0  0  0  0  0
    2.1821   12.1737   -1.5709 H   0  0  0  0  0  0  0  0  0  0  0  0
    1.4002   13.7909   -1.5709 H   0  0  0  0  0  0  0  0  0  0  0  0
  1  2  1  0
  2  3  1  0
  3  4  1  0
  4  5  1  0
  5  6  1  0
  6  7  1  0
  7  8  1  0
  7  9  1  0
  2 10  1  0
 10 11  1  0
 11 12  1  0
 12 13  1  0
 13 14  1  6
 13 15  1  0
 15 16  1  0
 16 17  1  0
 17 18  2  0
 18 19  1  0
 19 20  1  0
 20 21  1  0
 21 22  1  0
 22 23  1  0
 22 24  1  0
 24 25  1  0
 24 26  1  0
 19 27  1  0
 27 28  1  1
 27 29  1  0
 29 30  1  0
 30 31  1  0
 31 32  1  1
  7  5  1  0
 31 10  1  0
 31 13  1  0
 27 15  1  0
 24 18  1  0
  1 33  1  0
  1 34  1  0
  1 35  1  0
  2 36  1  6
  3 37  1  0
  3 38  1  0
  4 39  1  0
  4 40  1  0
  5 41  1  1
  8 42  1  0
  8 43  1  0
  8 44  1  0
  9 45  1  0
  9 46  1  0
  9 47  1  0
 10 48  1  6
 11 49  1  0
 11 50  1  0
 12 51  1  0
 12 52  1  0
 14 53  1  0
 14 54  1  0
 14 55  1  0
 15 56  1  1
 16 57  1  0
 16 58  1  0
 17 59  1  0
 19 60  1  6
 20 61  1  0
 20 62  1  0
 21 63  1  0
 21 64  1  0
 22 65  1  6
 23 66  1  0
 25 67  1  0
 25 68  1  0
 25 69  1  0
 26 70  1  0
 26 71  1  0
 26 72  1  0
 28 73  1  0
 28 74  1  0
 28 75  1  0
 29 76  1  0
 29 77  1  0
 30 78  1  0
 30 79  1  0
 32 80  1  0
 32 81  1  0
 32 82  1  0
M  END
>  <meeko>  (19) 
{"is_sidechain": [false], "intermolecular_energy": 2.731, "internal_energy": -0.839}

$$$$
EPH_relaxed_0001_pdb2pqr_Repair_72_r2_0001_out
     RDKit          3D

 82 86  0  0  0  0  0  0  0  0999 V2000
   -2.4140    7.7930    0.0750 C   0  0  0  0  0  0  0  0  0  0  0  0
   -3.1150    9.1510   -0.0160 C   0  0  2  0  0  0  0  0  0  0  0  0
   -4.5780    9.0190   -0.4850 C   0  0  0  0  0  0  0  0  0  0  0  0
   -5.0390    7.5700   -0.6610 C   0  0  0  0  0  0  0  0  0  0  0  0
   -5.8820    7.4020   -1.8890 C   0  0  2  0  0  0  0  0  0  0  0  0
   -6.8120    8.4670   -2.1270 O   0  0  0  0  0  0  0  0  0  0  0  0
   -7.3820    7.1780   -1.8490 C   0  0  0  0  0  0  0  0  0  0  0  0
   -8.1270    7.1090   -0.5530 C   0  0  0  0  0  0  0  0  0  0  0  0
   -8.0430    6.5430   -3.0330 C   0  0  0  0  0  0  0  0  0  0  0  0
   -2.3470   10.0710   -0.9580 C   0  0  1  0  0  0  0  0  0  0  0  0
   -2.9880   11.4800   -1.0710 C   0  0  0  0  0  0  0  0  0  0  0  0
   -1.8230   12.4890   -1.2350 C   0  0  0  0  0  0  0  0  0  0  0  0
   -0.5870   11.6120   -1.5430 C   0  0  1  0  0  0  0  0  0  0  0  0
   -0.6920   11.2920   -3.0670 C   0  0  0  0  0  0  0  0  0  0  0  0
    0.8040   12.2240   -1.1760 C   0  0  2  0  0  0  0  0  0  0  0  0
    1.1700   13.5120   -1.9330 C   0  0  0  0  0  0  0  0  0  0  0  0
    1.9110   13.3110   -3.2130 C   0  0  0  0  0  0  0  0  0  0  0  0
    2.5170   12.1720   -3.5960 C   0  0  0  0  0  0  0  0  0  0  0  0
    2.5770   10.9590   -2.6580 C   0  0  1  0  0  0  0  0  0  0  0  0
    4.0180   10.3850   -2.6450 C   0  0  0  0  0  0  0  0  0  0  0  0
    4.5330   10.0660   -4.0460 C   0  0  0  0  0  0  0  0  0  0  0  0
    4.5130   11.3100   -4.9300 C   0  0  2  0  0  0  0  0  0  0  0  0
    5.4690   12.2490   -4.4270 O   0  0  0  0  0  0  0  0  0  0  0  0
    3.1140   11.9810   -5.0120 C   0  0  0  0  0  0  0  0  0  0  0  0
    2.1520   11.0820   -5.8280 C   0  0  0  0  0  0  0  0  0  0  0  0
    3.2630   13.3000   -5.8170 C   0  0  0  0  0  0  0  0  0  0  0  0
    1.9960   11.1830   -1.1960 C   0  0  1  0  0  0  0  0  0  0  0  0
    3.1060   11.7600   -0.2650 C   0  0  0  0  0  0  0  0  0  0  0  0
    1.5850    9.7910   -0.5870 C   0  0  0  0  0  0  0  0  0  0  0  0
    0.1570    9.2960   -0.8860 C   0  0  0  0  0  0  0  0  0  0  0  0
   -0.8750   10.3900   -0.5960 C   0  0  2  0  0  0  0  0  0  0  0  0
   -0.8080   10.7170    0.9350 C   0  0  0  0  0  0  0  0  0  0  0  0
   -2.2744    7.5225    1.1321 H   0  0  0  0  0  0  0  0  0  0  0  0
   -3.0301    7.0284   -0.4208 H   0  0  0  0  0  0  0  0  0  0  0  0
   -1.4339    7.8523   -0.4208 H   0  0  0  0  0  0  0  0  0  0  0  0
   -3.1302    9.5836    0.9952 H   0  0  0  0  0  0  0  0  0  0  0  0
   -5.2267    9.5017    0.2607 H   0  0  0  0  0  0  0  0  0  0  0  0
   -4.6439    9.4996   -1.4722 H   0  0  0  0  0  0  0  0  0  0  0  0
   -4.1541    6.9220   -0.7446 H   0  0  0  0  0  0  0  0  0  0  0  0
   -5.6476    7.2951    0.2131 H   0  0  0  0  0  0  0  0  0  0  0  0
   -5.0694    6.8674   -2.4027 H   0  0  0  0  0  0  0  0  0  0  0  0
   -7.4152    7.1749    0.2831 H   0  0  0  0  0  0  0  0  0  0  0  0
   -8.8395    7.9450   -0.4947 H   0  0  0  0  0  0  0  0  0  0  0  0
   -8.6739    6.1564   -0.4947 H   0  0  0  0  0  0  0  0  0  0  0  0
   -8.7963    5.8194   -2.6881 H   0  0  0  0  0  0  0  0  0  0  0  0
   -8.5314    7.3193   -3.6404 H   0  0  0  0  0  0  0  0  0  0  0  0
   -7.2870    6.0239   -3.6404 H   0  0  0  0  0  0  0  0  0  0  0  0
   -2.3865    9.4686   -1.8776 H   0  0  0  0  0  0  0  0  0  0  0  0
   -3.6536   11.5244   -1.9457 H   0  0  0  0  0  0  0  0  0  0  0  0
   -3.5899   11.7128   -0.1802 H   0  0  0  0  0  0  0  0  0  0  0  0
   -2.0238   13.1822   -2.0652 H   0  0  0  0  0  0  0  0  0  0  0  0
   -1.6804   13.1104   -0.3386 H   0  0  0  0  0  0  0  0  0  0  0  0
   -1.0324   10.2546   -3.2012 H   0  0  0  0  0  0  0  0  0  0  0  0
   -1.4122   11.9779   -3.5369 H   0  0  0  0  0  0  0  0  0  0  0  0
    0.2946   11.4179   -3.5369 H   0  0  0  0  0  0  0  0  0  0  0  0
    0.6603   12.5243   -0.1276 H   0  0  0  0  0  0  0  0  0  0  0  0
    0.2374   14.0489   -2.1610 H   0  0  0  0  0  0  0  0  0  0  0  0
    1.8498   14.0702   -1.2725 H   0  0  0  0  0  0  0  0  0  0  0  0
    1.9665   14.1667   -3.9020 H   0  0  0  0  0  0  0  0  0  0  0  0
    1.8830   10.2159   -3.0778 H   0  0  0  0  0  0  0  0  0  0  0  0
    4.6882   11.1247   -2.1828 H   0  0  0  0  0  0  0  0  0  0  0  0
    3.9981    9.4449   -2.0742 H   0  0  0  0  0  0  0  0  0  0  0  0
    5.5650    9.6920   -3.9739 H   0  0  0  0  0  0  0  0  0  0  0  0
    3.8789    9.3046   -4.4959 H   0  0  0  0  0  0  0  0  0  0  0  0
    4.7683   10.9925   -5.9517 H   0  0  0  0  0  0  0  0  0  0  0  0
    6.3040   11.7730   -4.2880 H   0  0  0  0  0  0  0  0  0  0  0  0
    1.5251   10.4962   -5.1396 H   0  0  0  0  0  0  0  0  0  0  0  0
    1.5106   11.7119   -6.4619 H   0  0  0  0  0  0  0  0  0  0  0  0
    2.7371   10.3995   -6.4619 H   0  0  0  0  0  0  0  0  0  0  0  0
    3.3586   14.1459   -5.1204 H   0  0  0  0  0  0  0  0  0  0  0  0
    4.1605   13.2435   -6.4505 H   0  0  0  0  0  0  0  0  0  0  0  0
    2.3755   13.4452   -6.4505 H   0  0  0  0  0  0  0  0  0  0  0  0
    2.8176   11.6101    0.7859 H   0  0  0  0  0  0  0  0  0  0  0  0
    4.0559   11.2416   -0.4621 H   0  0  0  0  0  0  0  0  0  0  0  0
    3.2274   12.8354   -0.4621 H   0  0  0  0  0  0  0  0  0  0  0  0
    2.2864    9.0378   -0.9753 H   0  0  0  0  0  0  0  0  0  0  0  0
    1.6179    9.9330    0.5033 H   0  0  0  0  0  0  0  0  0  0  0  0
    0.0899    9.0101   -1.9461 H   0  0  0  0  0  0  0  0  0  0  0  0
   -0.0570    8.4320   -0.2396 H   0  0  0  0  0  0  0  0  0  0  0  0
   -0.9957    9.8009    1.5142 H   0  0  0  0  0  0  0  0  0  0  0  0
    0.1892   11.1096    1.1828 H   0  0  0  0  0  0  0  0  0  0  0  0
   -1.5705   11.4701    1.1828 H   0  0  0  0  0  0  0  0  0  0  0  0
  1  2  1  0
  2  3  1  0
  3  4  1  0
  4  5  1  0
  5  6  1  0
  6  7  1  0
  7  8  1  0
  7  9  1  0
  2 10  1  0
 10 11  1  0
 11 12  1  0
 12 13  1  0
 13 14  1  6
 13 15  1  0
 15 16  1  0
 16 17  1  0
 17 18  2  0
 18 19  1  0
 19 20  1  0
 20 21  1  0
 21 22  1  0
 22 23  1  0
 22 24  1  0
 24 25  1  0
 24 26  1  0
 19 27  1  0
 27 28  1  1
 27 29  1  0
 29 30  1  0
 30 31  1  0
 31 32  1  1
  7  5  1  0
 31 10  1  0
 31 13  1  0
 27 15  1  0
 24 18  1  0
  1 33  1  0
  1 34  1  0
  1 35  1  0
  2 36  1  1
  3 37  1  0
  3 38  1  0
  4 39  1  0
  4 40  1  0
  5 41  1  6
  8 42  1  0
  8 43  1  0
  8 44  1  0
  9 45  1  0
  9 46  1  0
  9 47  1  0
 10 48  1  6
 11 49  1  0
 11 50  1  0
 12 51  1  0
 12 52  1  0
 14 53  1  0
 14 54  1  0
 14 55  1  0
 15 56  1  1
 16 57  1  0
 16 58  1  0
 17 59  1  0
 19 60  1  6
 20 61  1  0
 20 62  1  0
 21 63  1  0
 21 64  1  0
 22 65  1  6
 23 66  1  0
 25 67  1  0
 25 68  1  0
 25 69  1  0
 26 70  1  0
 26 71  1  0
 26 72  1  0
 28 73  1  0
 28 74  1  0
 28 75  1  0
 29 76  1  0
 29 77  1  0
 30 78  1  0
 30 79  1  0
 32 80  1  0
 32 81  1  0
 32 82  1  0
M  END
>  <meeko>  (20) 
{"is_sidechain": [false], "intermolecular_energy": 2.731, "internal_energy": -0.839}

$$$$
