EPH_relaxed_0001_pdb2pqr_Repair_200_r2_0001_out
     RDKit          3D

 82 86  0  0  0  0  0  0  0  0999 V2000
   -1.6940    8.4800   -1.9110 C   0  0  0  0  0  0  0  0  0  0  0  0
   -2.0580    9.0230   -0.5270 C   0  0  2  0  0  0  0  0  0  0  0  0
   -3.5540    9.3830   -0.4190 C   0  0  0  0  0  0  0  0  0  0  0  0
   -4.4730    8.1640   -0.3000 C   0  0  0  0  0  0  0  0  0  0  0  0
   -5.1900    7.8830   -1.5860 C   0  0  2  0  0  0  0  0  0  0  0  0
   -6.3490    8.6950   -1.8140 O   0  0  0  0  0  0  0  0  0  0  0  0
   -6.5840    7.2870   -1.6530 C   0  0  0  0  0  0  0  0  0  0  0  0
   -7.3430    6.9350   -0.4130 C   0  0  0  0  0  0  0  0  0  0  0  0
   -7.0070    6.5990   -2.9130 C   0  0  0  0  0  0  0  0  0  0  0  0
   -1.2050   10.2450   -0.2070 C   0  0  1  0  0  0  0  0  0  0  0  0
   -0.1730    9.9740    0.9200 C   0  0  0  0  0  0  0  0  0  0  0  0
    1.0940   10.7990    0.5750 C   0  0  0  0  0  0  0  0  0  0  0  0
    0.6370   11.7640   -0.5440 C   0  0  1  0  0  0  0  0  0  0  0  0
   -0.0750   12.9350    0.2030 C   0  0  0  0  0  0  0  0  0  0  0  0
    1.7550   12.2870   -1.5040 C   0  0  2  0  0  0  0  0  0  0  0  0
    2.8540   13.1260   -0.8290 C   0  0  0  0  0  0  0  0  0  0  0  0
    2.5970   14.5960   -0.7840 C   0  0  0  0  0  0  0  0  0  0  0  0
    1.6720   15.2510   -1.5100 C   0  0  0  0  0  0  0  0  0  0  0  0
    0.8310   14.5150   -2.5620 C   0  0  1  0  0  0  0  0  0  0  0  0
    0.8010   15.3440   -3.8730 C   0  0  0  0  0  0  0  0  0  0  0  0
    0.3300   16.7780   -3.6480 C   0  0  0  0  0  0  0  0  0  0  0  0
    1.2260   17.4940   -2.6410 C   0  0  2  0  0  0  0  0  0  0  0  0
    2.5270   17.6540   -3.2130 O   0  0  0  0  0  0  0  0  0  0  0  0
    1.3410   16.7460   -1.2830 C   0  0  0  0  0  0  0  0  0  0  0  0
   -0.0060   16.8360   -0.5240 C   0  0  0  0  0  0  0  0  0  0  0  0
    2.3810   17.4980   -0.4100 C   0  0  0  0  0  0  0  0  0  0  0  0
    1.2090   12.9920   -2.8110 C   0  0  1  0  0  0  0  0  0  0  0  0
    2.3430   12.8930   -3.8770 C   0  0  0  0  0  0  0  0  0  0  0  0
   -0.0370   12.2450   -3.4180 C   0  0  0  0  0  0  0  0  0  0  0  0
   -1.0440   11.6470   -2.4170 C   0  0  0  0  0  0  0  0  0  0  0  0
   -0.3270   10.8170   -1.3480 C   0  0  2  0  0  0  0  0  0  0  0  0
    0.3810    9.6190   -2.0670 C   0  0  0  0  0  0  0  0  0  0  0  0
   -1.0847    7.5710   -1.7996 H   0  0  0  0  0  0  0  0  0  0  0  0
   -2.6139    8.2393   -2.4640 H   0  0  0  0  0  0  0  0  0  0  0  0
   -1.1218    9.2395   -2.4640 H   0  0  0  0  0  0  0  0  0  0  0  0
   -1.8561    8.2263    0.2040 H   0  0  0  0  0  0  0  0  0  0  0  0
   -3.6962   10.0134    0.4712 H   0  0  0  0  0  0  0  0  0  0  0  0
   -3.8277    9.9026   -1.3491 H   0  0  0  0  0  0  0  0  0  0  0  0
   -3.8676    7.2861   -0.0301 H   0  0  0  0  0  0  0  0  0  0  0  0
   -5.2260    8.3762    0.4733 H   0  0  0  0  0  0  0  0  0  0  0  0
   -4.2462    7.6100   -2.0808 H   0  0  0  0  0  0  0  0  0  0  0  0
   -6.7491    7.2104    0.4710 H   0  0  0  0  0  0  0  0  0  0  0  0
   -8.2969    7.4827   -0.3991 H   0  0  0  0  0  0  0  0  0  0  0  0
   -7.5411    5.8531   -0.3991 H   0  0  0  0  0  0  0  0  0  0  0  0
   -7.5679    5.6867   -2.6620 H   0  0  0  0  0  0  0  0  0  0  0  0
   -7.6471    7.2727   -3.5015 H   0  0  0  0  0  0  0  0  0  0  0  0
   -6.1169    6.3319   -3.5015 H   0  0  0  0  0  0  0  0  0  0  0  0
   -1.9982   10.9615    0.0530 H   0  0  0  0  0  0  0  0  0  0  0  0
   -0.5799   10.2931    1.8909 H   0  0  0  0  0  0  0  0  0  0  0  0
    0.0614    8.9016    0.9911 H   0  0  0  0  0  0  0  0  0  0  0  0
    1.4431   11.3608    1.4539 H   0  0  0  0  0  0  0  0  0  0  0  0
    1.9340   10.1624    0.2602 H   0  0  0  0  0  0  0  0  0  0  0  0
    0.0156   12.7860    1.2891 H   0  0  0  0  0  0  0  0  0  0  0  0
    0.3962   13.8888   -0.0768 H   0  0  0  0  0  0  0  0  0  0  0  0
   -1.1386   12.9555   -0.0768 H   0  0  0  0  0  0  0  0  0  0  0  0
    2.2453   11.3562   -1.8253 H   0  0  0  0  0  0  0  0  0  0  0  0
    2.9672   12.7689    0.2053 H   0  0  0  0  0  0  0  0  0  0  0  0
    3.7576   12.9937   -1.4422 H   0  0  0  0  0  0  0  0  0  0  0  0
    3.2161   15.1945   -0.0995 H   0  0  0  0  0  0  0  0  0  0  0  0
   -0.1836   14.4418   -2.1433 H   0  0  0  0  0  0  0  0  0  0  0  0
    1.8153   15.3686   -4.2979 H   0  0  0  0  0  0  0  0  0  0  0  0
    0.0871   14.8615   -4.5568 H   0  0  0  0  0  0  0  0  0  0  0  0
    0.3580   17.3205   -4.6045 H   0  0  0  0  0  0  0  0  0  0  0  0
   -0.6953   16.7528   -3.2504 H   0  0  0  0  0  0  0  0  0  0  0  0
    0.7648   18.4689   -2.4245 H   0  0  0  0  0  0  0  0  0  0  0  0
    2.8570   16.7700   -3.4460 H   0  0  0  0  0  0  0  0  0  0  0  0
    0.1822   16.8234    0.5597 H   0  0  0  0  0  0  0  0  0  0  0  0
   -0.5186   17.7704   -0.7963 H   0  0  0  0  0  0  0  0  0  0  0  0
   -0.6383   15.9781   -0.7963 H   0  0  0  0  0  0  0  0  0  0  0  0
    2.1540   17.3339    0.6537 H   0  0  0  0  0  0  0  0  0  0  0  0
    3.3893   17.1187   -0.6325 H   0  0  0  0  0  0  0  0  0  0  0  0
    2.3368   18.5743   -0.6325 H   0  0  0  0  0  0  0  0  0  0  0  0
    3.3158   12.8081   -3.3706 H   0  0  0  0  0  0  0  0  0  0  0  0
    2.1784   12.0058   -4.5061 H   0  0  0  0  0  0  0  0  0  0  0  0
    2.3346   13.7953   -4.5061 H   0  0  0  0  0  0  0  0  0  0  0  0
   -0.5812   12.9636   -4.0484 H   0  0  0  0  0  0  0  0  0  0  0  0
    0.3797   11.3817   -3.9575 H   0  0  0  0  0  0  0  0  0  0  0  0
   -1.5945   12.4645   -1.9286 H   0  0  0  0  0  0  0  0  0  0  0  0
   -1.7358   10.9906   -2.9652 H   0  0  0  0  0  0  0  0  0  0  0  0
    0.7889    8.9287   -1.3139 H   0  0  0  0  0  0  0  0  0  0  0  0
   -0.3476    9.0865   -2.6960 H   0  0  0  0  0  0  0  0  0  0  0  0
    1.1988   10.0004   -2.6960 H   0  0  0  0  0  0  0  0  0  0  0  0
  1  2  1  0
  2  3  1  0
  3  4  1  0
  4  5  1  0
  5  6  1  0
  6  7  1  0
  7  8  1  0
  7  9  1  0
  2 10  1  0
 10 11  1  0
 11 12  1  0
 12 13  1  0
 13 14  1  1
 13 15  1  0
 15 16  1  0
 16 17  1  0
 17 18  2  0
 18 19  1  0
 19 20  1  0
 20 21  1  0
 21 22  1  0
 22 23  1  0
 22 24  1  0
 24 25  1  0
 24 26  1  0
 19 27  1  0
 27 28  1  6
 27 29  1  0
 29 30  1  0
 30 31  1  0
 31 32  1  6
  7  5  1  0
 31 10  1  0
 31 13  1  0
 27 15  1  0
 24 18  1  0
  1 33  1  0
  1 34  1  0
  1 35  1  0
  2 36  1  1
  3 37  1  0
  3 38  1  0
  4 39  1  0
  4 40  1  0
  5 41  1  6
  8 42  1  0
  8 43  1  0
  8 44  1  0
  9 45  1  0
  9 46  1  0
  9 47  1  0
 10 48  1  1
 11 49  1  0
 11 50  1  0
 12 51  1  0
 12 52  1  0
 14 53  1  0
 14 54  1  0
 14 55  1  0
 15 56  1  6
 16 57  1  0
 16 58  1  0
 17 59  1  0
 19 60  1  1
 20 61  1  0
 20 62  1  0
 21 63  1  0
 21 64  1  0
 22 65  1  1
 23 66  1  0
 25 67  1  0
 25 68  1  0
 25 69  1  0
 26 70  1  0
 26 71  1  0
 26 72  1  0
 28 73  1  0
 28 74  1  0
 28 75  1  0
 29 76  1  0
 29 77  1  0
 30 78  1  0
 30 79  1  0
 32 80  1  0
 32 81  1  0
 32 82  1  0
M  END
>  <meeko>  (1) 
{"is_sidechain": [false], "intermolecular_energy": 2.731, "internal_energy": -0.839}

$$$$
EPH_relaxed_0001_pdb2pqr_Repair_200_r2_0001_out
     RDKit          3D

 82 86  0  0  0  0  0  0  0  0999 V2000
    2.2940   18.0020   -3.0020 C   0  0  0  0  0  0  0  0  0  0  0  0
    0.9630   17.6810   -2.3160 C   0  0  2  0  0  0  0  0  0  0  0  0
    1.0470   17.8370   -0.7840 C   0  0  0  0  0  0  0  0  0  0  0  0
    0.7080   19.2460   -0.2900 C   0  0  0  0  0  0  0  0  0  0  0  0
   -0.6580   19.3030    0.3240 C   0  0  2  0  0  0  0  0  0  0  0  0
   -1.5780   18.3190   -0.1670 O   0  0  0  0  0  0  0  0  0  0  0  0
   -1.9070   19.6890   -0.4470 C   0  0  0  0  0  0  0  0  0  0  0  0
   -1.8480   20.0440   -1.9000 C   0  0  0  0  0  0  0  0  0  0  0  0
   -3.0920   20.1920    0.3150 C   0  0  0  0  0  0  0  0  0  0  0  0
    0.5230   16.2660   -2.6720 C   0  0  1  0  0  0  0  0  0  0  0  0
    0.5490   15.9990   -4.2010 C   0  0  0  0  0  0  0  0  0  0  0  0
    0.9680   14.5180   -4.3890 C   0  0  0  0  0  0  0  0  0  0  0  0
    0.8460   13.8960   -2.9780 C   0  0  1  0  0  0  0  0  0  0  0  0
   -0.6730   13.5760   -2.8100 C   0  0  0  0  0  0  0  0  0  0  0  0
    1.7340   12.6400   -2.6970 C   0  0  2  0  0  0  0  0  0  0  0  0
    1.4310   11.4160   -3.5790 C   0  0  0  0  0  0  0  0  0  0  0  0
    0.4140   10.4710   -3.0300 C   0  0  0  0  0  0  0  0  0  0  0  0
   -0.0210   10.4440   -1.7570 C   0  0  0  0  0  0  0  0  0  0  0  0
    0.5910   11.3660   -0.6950 C   0  0  1  0  0  0  0  0  0  0  0  0
    0.8970   10.5470    0.5870 C   0  0  0  0  0  0  0  0  0  0  0  0
   -0.3240    9.7930    1.1040 C   0  0  0  0  0  0  0  0  0  0  0  0
   -0.8700    8.8440    0.0400 C   0  0  2  0  0  0  0  0  0  0  0  0
    0.0910    7.8090   -0.1910 O   0  0  0  0  0  0  0  0  0  0  0  0
   -1.2040    9.5540   -1.3010 C   0  0  0  0  0  0  0  0  0  0  0  0
   -2.4480   10.4580   -1.1150 C   0  0  0  0  0  0  0  0  0  0  0  0
   -1.6100    8.4650   -2.3310 C   0  0  0  0  0  0  0  0  0  0  0  0
    1.8290   12.2420   -1.1690 C   0  0  1  0  0  0  0  0  0  0  0  0
    3.1510   11.4310   -1.0020 C   0  0  0  0  0  0  0  0  0  0  0  0
    1.9590   13.4990   -0.2300 C   0  0  0  0  0  0  0  0  0  0  0  0
    1.1490   14.7490   -0.6270 C   0  0  0  0  0  0  0  0  0  0  0  0
    1.3630   15.0950   -2.1030 C   0  0  2  0  0  0  0  0  0  0  0  0
    2.8780   15.4430   -2.2980 C   0  0  0  0  0  0  0  0  0  0  0  0
    3.0643   18.1878   -2.2390 H   0  0  0  0  0  0  0  0  0  0  0  0
    2.5974   17.1513   -3.6299 H   0  0  0  0  0  0  0  0  0  0  0  0
    2.1763   18.8975   -3.6299 H   0  0  0  0  0  0  0  0  0  0  0  0
    0.2193   18.4046   -2.6813 H   0  0  0  0  0  0  0  0  0  0  0  0
    0.3427   17.1286   -0.3235 H   0  0  0  0  0  0  0  0  0  0  0  0
    2.0900   17.6377   -0.4970 H   0  0  0  0  0  0  0  0  0  0  0  0
    1.4505   19.5482    0.4632 H   0  0  0  0  0  0  0  0  0  0  0  0
    0.7248   19.9263   -1.1542 H   0  0  0  0  0  0  0  0  0  0  0  0
   -0.2396   19.6585    1.2772 H   0  0  0  0  0  0  0  0  0  0  0  0
   -1.6685   21.1240   -2.0066 H   0  0  0  0  0  0  0  0  0  0  0  0
   -1.0301   19.4872   -2.3806 H   0  0  0  0  0  0  0  0  0  0  0  0
   -2.8021   19.7817   -2.3806 H   0  0  0  0  0  0  0  0  0  0  0  0
   -2.8962   20.1089    1.3942 H   0  0  0  0  0  0  0  0  0  0  0  0
   -3.2747   21.2452    0.0555 H   0  0  0  0  0  0  0  0  0  0  0  0
   -3.9765   19.5917    0.0555 H   0  0  0  0  0  0  0  0  0  0  0  0
   -0.4789   16.2652   -2.2180 H   0  0  0  0  0  0  0  0  0  0  0  0
   -0.4488   16.1681   -4.6322 H   0  0  0  0  0  0  0  0  0  0  0  0
    1.2520   16.6760   -4.7084 H   0  0  0  0  0  0  0  0  0  0  0  0
    0.2954   14.0109   -5.0964 H   0  0  0  0  0  0  0  0  0  0  0  0
    1.9831   14.4207   -4.8015 H   0  0  0  0  0  0  0  0  0  0  0  0
   -0.9205   13.5239   -1.7395 H   0  0  0  0  0  0  0  0  0  0  0  0
   -1.2694   14.3682   -3.2861 H   0  0  0  0  0  0  0  0  0  0  0  0
   -0.8992   12.6105   -3.2861 H   0  0  0  0  0  0  0  0  0  0  0  0
    2.7336   12.9858   -2.9992 H   0  0  0  0  0  0  0  0  0  0  0  0
    1.0674   11.7794   -4.5515 H   0  0  0  0  0  0  0  0  0  0  0  0
    2.3706   10.8478   -3.6445 H   0  0  0  0  0  0  0  0  0  0  0  0
   -0.0160    9.7346   -3.7248 H   0  0  0  0  0  0  0  0  0  0  0  0
   -0.1713   12.1287   -0.4777 H   0  0  0  0  0  0  0  0  0  0  0  0
    1.6906    9.8199    0.3600 H   0  0  0  0  0  0  0  0  0  0  0  0
    1.2086   11.2548    1.3693 H   0  0  0  0  0  0  0  0  0  0  0  0
   -0.0382    9.2113    1.9928 H   0  0  0  0  0  0  0  0  0  0  0  0
   -1.1063   10.5235    1.3577 H   0  0  0  0  0  0  0  0  0  0  0  0
   -1.8159    8.4311    0.4206 H   0  0  0  0  0  0  0  0  0  0  0  0
   -0.1100    7.0790    0.4200 H   0  0  0  0  0  0  0  0  0  0  0  0
   -2.6417   10.5988   -0.0414 H   0  0  0  0  0  0  0  0  0  0  0  0
   -2.2649   11.4352   -1.5858 H   0  0  0  0  0  0  0  0  0  0  0  0
   -3.3208    9.9820   -1.5858 H   0  0  0  0  0  0  0  0  0  0  0  0
   -1.9461    7.5634   -1.7980 H   0  0  0  0  0  0  0  0  0  0  0  0
   -2.4273    8.8439   -2.9623 H   0  0  0  0  0  0  0  0  0  0  0  0
   -0.7442    8.2164   -2.9623 H   0  0  0  0  0  0  0  0  0  0  0  0
    3.3671   11.2984    0.0684 H   0  0  0  0  0  0  0  0  0  0  0  0
    3.0394   10.4458   -1.4783 H   0  0  0  0  0  0  0  0  0  0  0  0
    3.9787   11.9769   -1.4783 H   0  0  0  0  0  0  0  0  0  0  0  0
    1.6339   13.1976    0.7767 H   0  0  0  0  0  0  0  0  0  0  0  0
    3.0134   13.8042   -0.3014 H   0  0  0  0  0  0  0  0  0  0  0  0
    0.0801   14.5549   -0.4543 H   0  0  0  0  0  0  0  0  0  0  0  0
    1.4903   15.5969   -0.0150 H   0  0  0  0  0  0  0  0  0  0  0  0
    3.3584   15.5533   -1.3146 H   0  0  0  0  0  0  0  0  0  0  0  0
    3.3707   14.6347   -2.8582 H   0  0  0  0  0  0  0  0  0  0  0  0
    2.9686   16.3853   -2.8582 H   0  0  0  0  0  0  0  0  0  0  0  0
  1  2  1  0
  2  3  1  0
  3  4  1  0
  4  5  1  0
  5  6  1  0
  6  7  1  0
  7  8  1  0
  7  9  1  0
  2 10  1  0
 10 11  1  0
 11 12  1  0
 12 13  1  0
 13 14  1  1
 13 15  1  0
 15 16  1  0
 16 17  1  0
 17 18  2  0
 18 19  1  0
 19 20  1  0
 20 21  1  0
 21 22  1  0
 22 23  1  0
 22 24  1  0
 24 25  1  0
 24 26  1  0
 19 27  1  0
 27 28  1  6
 27 29  1  0
 29 30  1  0
 30 31  1  0
 31 32  1  1
  7  5  1  0
 31 10  1  0
 31 13  1  0
 27 15  1  0
 24 18  1  0
  1 33  1  0
  1 34  1  0
  1 35  1  0
  2 36  1  6
  3 37  1  0
  3 38  1  0
  4 39  1  0
  4 40  1  0
  5 41  1  1
  8 42  1  0
  8 43  1  0
  8 44  1  0
  9 45  1  0
  9 46  1  0
  9 47  1  0
 10 48  1  1
 11 49  1  0
 11 50  1  0
 12 51  1  0
 12 52  1  0
 14 53  1  0
 14 54  1  0
 14 55  1  0
 15 56  1  6
 16 57  1  0
 16 58  1  0
 17 59  1  0
 19 60  1  1
 20 61  1  0
 20 62  1  0
 21 63  1  0
 21 64  1  0
 22 65  1  1
 23 66  1  0
 25 67  1  0
 25 68  1  0
 25 69  1  0
 26 70  1  0
 26 71  1  0
 26 72  1  0
 28 73  1  0
 28 74  1  0
 28 75  1  0
 29 76  1  0
 29 77  1  0
 30 78  1  0
 30 79  1  0
 32 80  1  0
 32 81  1  0
 32 82  1  0
M  END
>  <meeko>  (2) 
{"is_sidechain": [false], "intermolecular_energy": 2.731, "internal_energy": -0.839}

$$$$
EPH_relaxed_0001_pdb2pqr_Repair_200_r2_0001_out
     RDKit          3D

 82 86  0  0  0  0  0  0  0  0999 V2000
    1.7910   18.3490   -2.1680 C   0  0  0  0  0  0  0  0  0  0  0  0
    1.6320   17.2990   -1.0660 C   0  0  2  0  0  0  0  0  0  0  0  0
    2.9810   16.9260   -0.4190 C   0  0  0  0  0  0  0  0  0  0  0  0
    3.8250   18.1380   -0.0140 C   0  0  0  0  0  0  0  0  0  0  0  0
    3.4860   18.6140    1.3660 C   0  0  2  0  0  0  0  0  0  0  0  0
    3.7710   19.9970    1.6090 O   0  0  0  0  0  0  0  0  0  0  0  0
    4.5270   19.0490    2.3800 C   0  0  0  0  0  0  0  0  0  0  0  0
    5.9880   19.0290    2.0560 C   0  0  0  0  0  0  0  0  0  0  0  0
    4.1650   19.0270    3.8320 C   0  0  0  0  0  0  0  0  0  0  0  0
    0.9620   16.0510   -1.6300 C   0  0  1  0  0  0  0  0  0  0  0  0
    0.6520   16.1730   -3.1460 C   0  0  0  0  0  0  0  0  0  0  0  0
    0.8440   14.7600   -3.7560 C   0  0  0  0  0  0  0  0  0  0  0  0
    0.9310   13.8160   -2.5350 C   0  0  1  0  0  0  0  0  0  0  0  0
   -0.5520   13.5690   -2.1120 C   0  0  0  0  0  0  0  0  0  0  0  0
    1.6990   12.4720   -2.7530 C   0  0  2  0  0  0  0  0  0  0  0  0
    1.0820   11.5310   -3.8020 C   0  0  0  0  0  0  0  0  0  0  0  0
    0.0880   10.5500   -3.2730 C   0  0  0  0  0  0  0  0  0  0  0  0
   -0.0860   10.2360   -1.9760 C   0  0  0  0  0  0  0  0  0  0  0  0
    0.8320   10.8190   -0.8940 C   0  0  1  0  0  0  0  0  0  0  0  0
    1.2840    9.6880    0.0660 C   0  0  0  0  0  0  0  0  0  0  0  0
    0.1080    8.9140    0.6540 C   0  0  0  0  0  0  0  0  0  0  0  0
   -0.7470    8.3000   -0.4520 C   0  0  2  0  0  0  0  0  0  0  0  0
    0.0170    7.2920   -1.1200 O   0  0  0  0  0  0  0  0  0  0  0  0
   -1.2530    9.3440   -1.4860 C   0  0  0  0  0  0  0  0  0  0  0  0
   -2.3180   10.2560   -0.8270 C   0  0  0  0  0  0  0  0  0  0  0  0
   -1.9830    8.5770   -2.6210 C   0  0  0  0  0  0  0  0  0  0  0  0
    2.0470   11.6990   -1.4170 C   0  0  1  0  0  0  0  0  0  0  0  0
    3.2680   10.7840   -1.7370 C   0  0  0  0  0  0  0  0  0  0  0  0
    2.5100   12.6710   -0.2670 C   0  0  0  0  0  0  0  0  0  0  0  0
    1.7940   14.0320   -0.1780 C   0  0  0  0  0  0  0  0  0  0  0  0
    1.7520   14.7200   -1.5450 C   0  0  2  0  0  0  0  0  0  0  0  0
    3.2290   15.0010   -1.9860 C   0  0  0  0  0  0  0  0  0  0  0  0
    1.9409   19.3389   -1.7124 H   0  0  0  0  0  0  0  0  0  0  0  0
    2.6612   18.0969   -2.7918 H   0  0  0  0  0  0  0  0  0  0  0  0
    0.8852   18.3659   -2.7918 H   0  0  0  0  0  0  0  0  0  0  0  0
    0.9997   17.7379   -0.2801 H   0  0  0  0  0  0  0  0  0  0  0  0
    2.7805   16.3260    0.4809 H   0  0  0  0  0  0  0  0  0  0  0  0
    3.5571   16.3706   -1.1737 H   0  0  0  0  0  0  0  0  0  0  0  0
    4.8883   17.8576   -0.0431 H   0  0  0  0  0  0  0  0  0  0  0  0
    3.6129   18.9546   -0.7199 H   0  0  0  0  0  0  0  0  0  0  0  0
    2.6454   17.9073    1.4286 H   0  0  0  0  0  0  0  0  0  0  0  0
    6.5704   19.0210    2.9891 H   0  0  0  0  0  0  0  0  0  0  0  0
    6.2214   18.1276    1.4704 H   0  0  0  0  0  0  0  0  0  0  0  0
    6.2460   19.9237    1.4704 H   0  0  0  0  0  0  0  0  0  0  0  0
    5.0806   19.0826    4.4390 H   0  0  0  0  0  0  0  0  0  0  0  0
    3.5197   19.8876    4.0621 H   0  0  0  0  0  0  0  0  0  0  0  0
    3.6286   18.0946    4.0621 H   0  0  0  0  0  0  0  0  0  0  0  0
    0.0771   16.0055   -0.9782 H   0  0  0  0  0  0  0  0  0  0  0  0
   -0.3836   16.5126   -3.2949 H   0  0  0  0  0  0  0  0  0  0  0  0
    1.3166   16.9053   -3.6278 H   0  0  0  0  0  0  0  0  0  0  0  0
   -0.0119   14.4927   -4.3932 H   0  0  0  0  0  0  0  0  0  0  0  0
    1.7378   14.6994   -4.3943 H   0  0  0  0  0  0  0  0  0  0  0  0
   -0.6231   13.5572   -1.0144 H   0  0  0  0  0  0  0  0  0  0  0  0
   -1.1863   14.3739   -2.5119 H   0  0  0  0  0  0  0  0  0  0  0  0
   -0.8911   12.6020   -2.5119 H   0  0  0  0  0  0  0  0  0  0  0  0
    2.6530   12.8132   -3.1814 H   0  0  0  0  0  0  0  0  0  0  0  0
    0.5788   12.1498   -4.5595 H   0  0  0  0  0  0  0  0  0  0  0  0
    1.9147   10.9343   -4.2027 H   0  0  0  0  0  0  0  0  0  0  0  0
   -0.5562   10.0412   -4.0052 H   0  0  0  0  0  0  0  0  0  0  0  0
    0.2261   11.5542   -0.3441 H   0  0  0  0  0  0  0  0  0  0  0  0
    1.9238    8.9876   -0.4909 H   0  0  0  0  0  0  0  0  0  0  0  0
    1.8263   10.1559    0.9009 H   0  0  0  0  0  0  0  0  0  0  0  0
    0.4922    8.1109    1.3001 H   0  0  0  0  0  0  0  0  0  0  0  0
   -0.5153    9.6094    1.2353 H   0  0  0  0  0  0  0  0  0  0  0  0
   -1.6414    7.8703    0.0228 H   0  0  0  0  0  0  0  0  0  0  0  0
   -0.0050    7.4890   -2.0720 H   0  0  0  0  0  0  0  0  0  0  0  0
   -2.2350   10.1849    0.2676 H   0  0  0  0  0  0  0  0  0  0  0  0
   -2.1534   11.2975   -1.1403 H   0  0  0  0  0  0  0  0  0  0  0  0
   -3.3218    9.9331   -1.1403 H   0  0  0  0  0  0  0  0  0  0  0  0
   -2.6782    7.8465   -2.1816 H   0  0  0  0  0  0  0  0  0  0  0  0
   -2.5446    9.2897   -3.2428 H   0  0  0  0  0  0  0  0  0  0  0  0
   -1.2435    8.0513   -3.2428 H   0  0  0  0  0  0  0  0  0  0  0  0
    3.7255   10.4411   -0.7973 H   0  0  0  0  0  0  0  0  0  0  0  0
    2.9314    9.9139   -2.3198 H   0  0  0  0  0  0  0  0  0  0  0  0
    4.0086   11.3514   -2.3198 H   0  0  0  0  0  0  0  0  0  0  0  0
    2.3567   12.1510    0.6901 H   0  0  0  0  0  0  0  0  0  0  0  0
    3.5582   12.9116   -0.4980 H   0  0  0  0  0  0  0  0  0  0  0  0
    0.7649   13.8746    0.1773 H   0  0  0  0  0  0  0  0  0  0  0  0
    2.3488   14.6749    0.5211 H   0  0  0  0  0  0  0  0  0  0  0  0
    3.8614   15.1213   -1.0940 H   0  0  0  0  0  0  0  0  0  0  0  0
    3.5991   14.1572   -2.5868 H   0  0  0  0  0  0  0  0  0  0  0  0
    3.2634   15.9218   -2.5868 H   0  0  0  0  0  0  0  0  0  0  0  0
  1  2  1  0
  2  3  1  0
  3  4  1  0
  4  5  1  0
  5  6  1  0
  6  7  1  0
  7  8  1  0
  7  9  1  0
  2 10  1  0
 10 11  1  0
 11 12  1  0
 12 13  1  0
 13 14  1  1
 13 15  1  0
 15 16  1  0
 16 17  1  0
 17 18  2  0
 18 19  1  0
 19 20  1  0
 20 21  1  0
 21 22  1  0
 22 23  1  0
 22 24  1  0
 24 25  1  0
 24 26  1  0
 19 27  1  0
 27 28  1  6
 27 29  1  0
 29 30  1  0
 30 31  1  0
 31 32  1  6
  7  5  1  0
 31 10  1  0
 31 13  1  0
 27 15  1  0
 24 18  1  0
  1 33  1  0
  1 34  1  0
  1 35  1  0
  2 36  1  1
  3 37  1  0
  3 38  1  0
  4 39  1  0
  4 40  1  0
  5 41  1  1
  8 42  1  0
  8 43  1  0
  8 44  1  0
  9 45  1  0
  9 46  1  0
  9 47  1  0
 10 48  1  1
 11 49  1  0
 11 50  1  0
 12 51  1  0
 12 52  1  0
 14 53  1  0
 14 54  1  0
 14 55  1  0
 15 56  1  6
 16 57  1  0
 16 58  1  0
 17 59  1  0
 19 60  1  1
 20 61  1  0
 20 62  1  0
 21 63  1  0
 21 64  1  0
 22 65  1  1
 23 66  1  0
 25 67  1  0
 25 68  1  0
 25 69  1  0
 26 70  1  0
 26 71  1  0
 26 72  1  0
 28 73  1  0
 28 74  1  0
 28 75  1  0
 29 76  1  0
 29 77  1  0
 30 78  1  0
 30 79  1  0
 32 80  1  0
 32 81  1  0
 32 82  1  0
M  END
>  <meeko>  (3) 
{"is_sidechain": [false], "intermolecular_energy": 2.731, "internal_energy": -0.839}

$$$$
EPH_relaxed_0001_pdb2pqr_Repair_200_r2_0001_out
     RDKit          3D

 82 86  0  0  0  0  0  0  0  0999 V2000
    2.1330   19.6280   -0.9260 C   0  0  0  0  0  0  0  0  0  0  0  0
    2.4360   18.4410   -0.0070 C   0  0  2  0  0  0  0  0  0  0  0  0
    3.8920   17.9530   -0.1490 C   0  0  0  0  0  0  0  0  0  0  0  0
    4.8040   18.3950    0.9980 C   0  0  0  0  0  0  0  0  0  0  0  0
    4.0230   18.9850    2.1320 C   0  0  2  0  0  0  0  0  0  0  0  0
    4.5760   20.1890    2.6780 O   0  0  0  0  0  0  0  0  0  0  0  0
    4.5390   19.0540    3.5580 C   0  0  0  0  0  0  0  0  0  0  0  0
    5.8890   18.5240    3.9250 C   0  0  0  0  0  0  0  0  0  0  0  0
    3.5480   19.1870    4.6720 C   0  0  0  0  0  0  0  0  0  0  0  0
    1.4720   17.2970   -0.3000 C   0  0  1  0  0  0  0  0  0  0  0  0
    0.2540   17.7460   -1.1500 C   0  0  0  0  0  0  0  0  0  0  0  0
   -0.1060   16.5570   -2.0780 C   0  0  0  0  0  0  0  0  0  0  0  0
    0.6920   15.3610   -1.5070 C   0  0  1  0  0  0  0  0  0  0  0  0
   -0.1630   14.8460   -0.3060 C   0  0  0  0  0  0  0  0  0  0  0  0
    1.0270   14.2110   -2.5110 C   0  0  2  0  0  0  0  0  0  0  0  0
   -0.1930   13.4870   -3.1050 C   0  0  0  0  0  0  0  0  0  0  0  0
   -0.6650   12.2970   -2.3360 C   0  0  0  0  0  0  0  0  0  0  0  0
    0.0320   11.6590   -1.3780 C   0  0  0  0  0  0  0  0  0  0  0  0
    1.4740   12.0660   -1.0490 C   0  0  1  0  0  0  0  0  0  0  0  0
    2.3620   10.7980   -0.9510 C   0  0  0  0  0  0  0  0  0  0  0  0
    1.8070    9.7700    0.0320 C   0  0  0  0  0  0  0  0  0  0  0  0
    0.3940    9.3470   -0.3620 C   0  0  2  0  0  0  0  0  0  0  0  0
    0.4560    8.6290   -1.5980 O   0  0  0  0  0  0  0  0  0  0  0  0
   -0.5880   10.5430   -0.5010 C   0  0  0  0  0  0  0  0  0  0  0  0
   -0.8880   11.1350    0.8980 C   0  0  0  0  0  0  0  0  0  0  0  0
   -1.9370    9.9930   -1.0380 C   0  0  0  0  0  0  0  0  0  0  0  0
    2.1090   13.1840   -1.9830 C   0  0  1  0  0  0  0  0  0  0  0  0
    2.7490   12.5240   -3.2430 C   0  0  0  0  0  0  0  0  0  0  0  0
    3.2820   13.8950   -1.2100 C   0  0  0  0  0  0  0  0  0  0  0  0
    2.9030   15.1000   -0.3270 C   0  0  0  0  0  0  0  0  0  0  0  0
    2.0240   16.0890   -1.0980 C   0  0  2  0  0  0  0  0  0  0  0  0
    2.8650   16.6410   -2.2990 C   0  0  0  0  0  0  0  0  0  0  0  0
    1.9065   20.5152   -0.3164 H   0  0  0  0  0  0  0  0  0  0  0  0
    3.0077   19.8328   -1.5608 H   0  0  0  0  0  0  0  0  0  0  0  0
    1.2672   19.3886   -1.5608 H   0  0  0  0  0  0  0  0  0  0  0  0
    2.3024   18.7831    1.0299 H   0  0  0  0  0  0  0  0  0  0  0  0
    3.8877   16.8536   -0.1853 H   0  0  0  0  0  0  0  0  0  0  0  0
    4.2930   18.4019   -1.0697 H   0  0  0  0  0  0  0  0  0  0  0  0
    5.3623   17.5216    1.3662 H   0  0  0  0  0  0  0  0  0  0  0  0
    5.4872   19.1670    0.6144 H   0  0  0  0  0  0  0  0  0  0  0  0
    3.0796   18.6130    1.7058 H   0  0  0  0  0  0  0  0  0  0  0  0
    5.9831   18.4871    5.0203 H   0  0  0  0  0  0  0  0  0  0  0  0
    6.0101   17.5116    3.5122 H   0  0  0  0  0  0  0  0  0  0  0  0
    6.6665   19.1836    3.5122 H   0  0  0  0  0  0  0  0  0  0  0  0
    4.0702   19.1169    5.6376 H   0  0  0  0  0  0  0  0  0  0  0  0
    3.0423   20.1611    4.5985 H   0  0  0  0  0  0  0  0  0  0  0  0
    2.8033   18.3807    4.5985 H   0  0  0  0  0  0  0  0  0  0  0  0
    1.2314   16.9897    0.7284 H   0  0  0  0  0  0  0  0  0  0  0  0
   -0.5967   17.9868   -0.4955 H   0  0  0  0  0  0  0  0  0  0  0  0
    0.4912   18.6465   -1.7355 H   0  0  0  0  0  0  0  0  0  0  0  0
   -1.1865   16.3533   -2.0468 H   0  0  0  0  0  0  0  0  0  0  0  0
    0.1416   16.7594   -3.1305 H   0  0  0  0  0  0  0  0  0  0  0  0
    0.3195   15.1366    0.6389 H   0  0  0  0  0  0  0  0  0  0  0  0
   -1.1688   15.2887   -0.3554 H   0  0  0  0  0  0  0  0  0  0  0  0
   -0.2420   13.7500   -0.3554 H   0  0  0  0  0  0  0  0  0  0  0  0
    1.4868   14.7561   -3.3485 H   0  0  0  0  0  0  0  0  0  0  0  0
   -1.0225   14.2074   -3.1596 H   0  0  0  0  0  0  0  0  0  0  0  0
    0.1263   13.1078   -4.0870 H   0  0  0  0  0  0  0  0  0  0  0  0
   -1.6669   11.9094   -2.5727 H   0  0  0  0  0  0  0  0  0  0  0  0
    1.4316   12.5679   -0.0711 H   0  0  0  0  0  0  0  0  0  0  0  0
    2.4267   10.3349   -1.9467 H   0  0  0  0  0  0  0  0  0  0  0  0
    3.3512   11.1102   -0.5850 H   0  0  0  0  0  0  0  0  0  0  0  0
    2.4603    8.8850    0.0347 H   0  0  0  0  0  0  0  0  0  0  0  0
    1.7715   10.2245    1.0331 H   0  0  0  0  0  0  0  0  0  0  0  0
    0.0021    8.7129    0.4469 H   0  0  0  0  0  0  0  0  0  0  0  0
   -0.3730    8.1300   -1.6910 H   0  0  0  0  0  0  0  0  0  0  0  0
   -0.5355   10.4394    1.6738 H   0  0  0  0  0  0  0  0  0  0  0  0
   -0.3697   12.0991    1.0070 H   0  0  0  0  0  0  0  0  0  0  0  0
   -1.9720   11.2871    1.0070 H   0  0  0  0  0  0  0  0  0  0  0  0
   -2.5877    9.7277   -0.1917 H   0  0  0  0  0  0  0  0  0  0  0  0
   -2.4286   10.7625   -1.6514 H   0  0  0  0  0  0  0  0  0  0  0  0
   -1.7504    9.0991   -1.6514 H   0  0  0  0  0  0  0  0  0  0  0  0
    3.4827   11.7674   -2.9279 H   0  0  0  0  0  0  0  0  0  0  0  0
    1.9631   12.0443   -3.8448 H   0  0  0  0  0  0  0  0  0  0  0  0
    3.2526   13.2948   -3.8448 H   0  0  0  0  0  0  0  0  0  0  0  0
    3.7567   13.1437   -0.5617 H   0  0  0  0  0  0  0  0  0  0  0  0
    3.9350   14.3067   -1.9937 H   0  0  0  0  0  0  0  0  0  0  0  0
    2.3524   14.7409    0.5550 H   0  0  0  0  0  0  0  0  0  0  0  0
    3.8257   15.6150   -0.0212 H   0  0  0  0  0  0  0  0  0  0  0  0
    3.7265   17.2064   -1.9141 H   0  0  0  0  0  0  0  0  0  0  0  0
    3.2223   15.8012   -2.9131 H   0  0  0  0  0  0  0  0  0  0  0  0
    2.2367   17.3029   -2.9131 H   0  0  0  0  0  0  0  0  0  0  0  0
  1  2  1  0
  2  3  1  0
  3  4  1  0
  4  5  1  0
  5  6  1  0
  6  7  1  0
  7  8  1  0
  7  9  1  0
  2 10  1  0
 10 11  1  0
 11 12  1  0
 12 13  1  0
 13 14  1  1
 13 15  1  0
 15 16  1  0
 16 17  1  0
 17 18  2  0
 18 19  1  0
 19 20  1  0
 20 21  1  0
 21 22  1  0
 22 23  1  0
 22 24  1  0
 24 25  1  0
 24 26  1  0
 19 27  1  0
 27 28  1  6
 27 29  1  0
 29 30  1  0
 30 31  1  0
 31 32  1  6
  7  5  1  0
 31 10  1  0
 31 13  1  0
 27 15  1  0
 24 18  1  0
  1 33  1  0
  1 34  1  0
  1 35  1  0
  2 36  1  1
  3 37  1  0
  3 38  1  0
  4 39  1  0
  4 40  1  0
  5 41  1  1
  8 42  1  0
  8 43  1  0
  8 44  1  0
  9 45  1  0
  9 46  1  0
  9 47  1  0
 10 48  1  1
 11 49  1  0
 11 50  1  0
 12 51  1  0
 12 52  1  0
 14 53  1  0
 14 54  1  0
 14 55  1  0
 15 56  1  6
 16 57  1  0
 16 58  1  0
 17 59  1  0
 19 60  1  1
 20 61  1  0
 20 62  1  0
 21 63  1  0
 21 64  1  0
 22 65  1  1
 23 66  1  0
 25 67  1  0
 25 68  1  0
 25 69  1  0
 26 70  1  0
 26 71  1  0
 26 72  1  0
 28 73  1  0
 28 74  1  0
 28 75  1  0
 29 76  1  0
 29 77  1  0
 30 78  1  0
 30 79  1  0
 32 80  1  0
 32 81  1  0
 32 82  1  0
M  END
>  <meeko>  (4) 
{"is_sidechain": [false], "intermolecular_energy": 2.731, "internal_energy": -0.839}

$$$$
EPH_relaxed_0001_pdb2pqr_Repair_200_r2_0001_out
     RDKit          3D

 82 86  0  0  0  0  0  0  0  0999 V2000
   -1.2950    8.9130   -2.1110 C   0  0  0  0  0  0  0  0  0  0  0  0
   -1.5170    9.1900   -0.6220 C   0  0  2  0  0  0  0  0  0  0  0  0
   -3.0130    9.1970   -0.2490 C   0  0  0  0  0  0  0  0  0  0  0  0
   -3.8530    8.2060   -1.0570 C   0  0  0  0  0  0  0  0  0  0  0  0
   -5.2730    8.1640   -0.5790 C   0  0  2  0  0  0  0  0  0  0  0  0
   -5.8460    6.8520   -0.5170 O   0  0  0  0  0  0  0  0  0  0  0  0
   -6.4410    7.7590   -1.4590 C   0  0  0  0  0  0  0  0  0  0  0  0
   -6.2400    7.3670   -2.8900 C   0  0  0  0  0  0  0  0  0  0  0  0
   -7.8160    8.2090   -1.0770 C   0  0  0  0  0  0  0  0  0  0  0  0
   -0.8780   10.5200   -0.2400 C   0  0  1  0  0  0  0  0  0  0  0  0
   -0.0490   10.4320    1.0690 C   0  0  0  0  0  0  0  0  0  0  0  0
    1.1600   11.3870    0.8990 C   0  0  0  0  0  0  0  0  0  0  0  0
    0.8140   12.2350   -0.3480 C   0  0  1  0  0  0  0  0  0  0  0  0
   -0.1500   13.3450    0.1760 C   0  0  0  0  0  0  0  0  0  0  0  0
    2.0260   12.8430   -1.1270 C   0  0  2  0  0  0  0  0  0  0  0  0
    2.8810   13.8420   -0.3280 C   0  0  0  0  0  0  0  0  0  0  0  0
    2.4580   15.2700   -0.4310 C   0  0  0  0  0  0  0  0  0  0  0  0
    1.6160   15.7710   -1.3550 C   0  0  0  0  0  0  0  0  0  0  0  0
    1.0720   14.8890   -2.4860 C   0  0  1  0  0  0  0  0  0  0  0  0
    1.1930   15.6440   -3.8350 C   0  0  0  0  0  0  0  0  0  0  0  0
    0.5330   17.0190   -3.7980 C   0  0  0  0  0  0  0  0  0  0  0  0
    1.1420   17.8860   -2.7000 C   0  0  2  0  0  0  0  0  0  0  0  0
    2.5010   18.1760   -3.0410 O   0  0  0  0  0  0  0  0  0  0  0  0
    1.0850   17.2240   -1.2940 C   0  0  0  0  0  0  0  0  0  0  0  0
   -0.3810   17.1860   -0.7960 C   0  0  0  0  0  0  0  0  0  0  0  0
    1.8560   18.1390   -0.3050 C   0  0  0  0  0  0  0  0  0  0  0  0
    1.6570   13.4130   -2.5570 C   0  0  1  0  0  0  0  0  0  0  0  0
    2.9720   13.4020   -3.3930 C   0  0  0  0  0  0  0  0  0  0  0  0
    0.6360   12.4910   -3.3230 C   0  0  0  0  0  0  0  0  0  0  0  0
   -0.4670   11.8240   -2.4780 C   0  0  0  0  0  0  0  0  0  0  0  0
    0.1270   11.1400   -1.2430 C   0  0  2  0  0  0  0  0  0  0  0  0
    1.0850   10.0040   -1.7390 C   0  0  0  0  0  0  0  0  0  0  0  0
   -0.6109    8.0594   -2.2272 H   0  0  0  0  0  0  0  0  0  0  0  0
   -2.2581    8.6786   -2.5879 H   0  0  0  0  0  0  0  0  0  0  0  0
   -0.8564    9.8019   -2.5879 H   0  0  0  0  0  0  0  0  0  0  0  0
   -1.0409    8.3737   -0.0590 H   0  0  0  0  0  0  0  0  0  0  0  0
   -3.1063    8.9429    0.8172 H   0  0  0  0  0  0  0  0  0  0  0  0
   -3.3961   10.2029   -0.4758 H   0  0  0  0  0  0  0  0  0  0  0  0
   -3.8417    8.5084   -2.1146 H   0  0  0  0  0  0  0  0  0  0  0  0
   -3.4183    7.2037   -0.9289 H   0  0  0  0  0  0  0  0  0  0  0  0
   -5.1049    9.0374    0.0683 H   0  0  0  0  0  0  0  0  0  0  0  0
   -5.7385    6.3890   -2.9353 H   0  0  0  0  0  0  0  0  0  0  0  0
   -7.2161    7.3022   -3.3930 H   0  0  0  0  0  0  0  0  0  0  0  0
   -5.6177    8.1218   -3.3930 H   0  0  0  0  0  0  0  0  0  0  0  0
   -7.9013    8.2369    0.0193 H   0  0  0  0  0  0  0  0  0  0  0  0
   -7.9994    9.2140   -1.4848 H   0  0  0  0  0  0  0  0  0  0  0  0
   -8.5581    7.5068   -1.4848 H   0  0  0  0  0  0  0  0  0  0  0  0
   -1.7806   11.1454   -0.1755 H   0  0  0  0  0  0  0  0  0  0  0  0
   -0.6617   10.7458    1.9270 H   0  0  0  0  0  0  0  0  0  0  0  0
    0.2859    9.4009    1.2553 H   0  0  0  0  0  0  0  0  0  0  0  0
    1.2760   12.0285    1.7850 H   0  0  0  0  0  0  0  0  0  0  0  0
    2.1090   10.8428    0.7836 H   0  0  0  0  0  0  0  0  0  0  0  0
   -0.1482   13.3429    1.2760 H   0  0  0  0  0  0  0  0  0  0  0  0
    0.1875   14.3261   -0.1893 H   0  0  0  0  0  0  0  0  0  0  0  0
   -1.1687   13.1483   -0.1893 H   0  0  0  0  0  0  0  0  0  0  0  0
    2.6670   11.9638   -1.2887 H   0  0  0  0  0  0  0  0  0  0  0  0
    2.8410   13.5515    0.7322 H   0  0  0  0  0  0  0  0  0  0  0  0
    3.8909   13.7922   -0.7612 H   0  0  0  0  0  0  0  0  0  0  0  0
    2.8685   15.9718    0.3099 H   0  0  0  0  0  0  0  0  0  0  0  0
    0.0119   14.7127   -2.2512 H   0  0  0  0  0  0  0  0  0  0  0  0
    2.2593   15.7712   -4.0733 H   0  0  0  0  0  0  0  0  0  0  0  0
    0.6754   15.0460   -4.5995 H   0  0  0  0  0  0  0  0  0  0  0  0
    0.6776   17.5141   -4.7696 H   0  0  0  0  0  0  0  0  0  0  0  0
   -0.5390   16.8887   -3.5889 H   0  0  0  0  0  0  0  0  0  0  0  0
    0.5437   18.8069   -2.6374 H   0  0  0  0  0  0  0  0  0  0  0  0
    2.5470   18.2760   -4.0060 H   0  0  0  0  0  0  0  0  0  0  0  0
   -0.3947   17.1856    0.3039 H   0  0  0  0  0  0  0  0  0  0  0  0
   -0.9180   18.0705   -1.1691 H   0  0  0  0  0  0  0  0  0  0  0  0
   -0.8715   16.2748   -1.1691 H   0  0  0  0  0  0  0  0  0  0  0  0
    1.6124   17.8499    0.7280 H   0  0  0  0  0  0  0  0  0  0  0  0
    2.9378   18.0290   -0.4711 H   0  0  0  0  0  0  0  0  0  0  0  0
    1.5642   19.1865   -0.4711 H   0  0  0  0  0  0  0  0  0  0  0  0
    3.8378   13.3948   -2.7145 H   0  0  0  0  0  0  0  0  0  0  0  0
    2.9957   12.5036   -4.0273 H   0  0  0  0  0  0  0  0  0  0  0  0
    3.0108   14.2999   -4.0273 H   0  0  0  0  0  0  0  0  0  0  0  0
    0.1419   13.1064   -4.0893 H   0  0  0  0  0  0  0  0  0  0  0  0
    1.2387   11.6597   -3.7176 H   0  0  0  0  0  0  0  0  0  0  0  0
   -1.1855   12.5913   -2.1538 H   0  0  0  0  0  0  0  0  0  0  0  0
   -0.9684   11.0627   -3.0936 H   0  0  0  0  0  0  0  0  0  0  0  0
    1.5209    9.4871   -0.8713 H   0  0  0  0  0  0  0  0  0  0  0  0
    0.5168    9.2846   -2.3470 H   0  0  0  0  0  0  0  0  0  0  0  0
    1.8900   10.4426   -2.3470 H   0  0  0  0  0  0  0  0  0  0  0  0
  1  2  1  0
  2  3  1  0
  3  4  1  0
  4  5  1  0
  5  6  1  0
  6  7  1  0
  7  8  1  0
  7  9  1  0
  2 10  1  0
 10 11  1  0
 11 12  1  0
 12 13  1  0
 13 14  1  1
 13 15  1  0
 15 16  1  0
 16 17  1  0
 17 18  2  0
 18 19  1  0
 19 20  1  0
 20 21  1  0
 21 22  1  0
 22 23  1  0
 22 24  1  0
 24 25  1  0
 24 26  1  0
 19 27  1  0
 27 28  1  6
 27 29  1  0
 29 30  1  0
 30 31  1  0
 31 32  1  6
  7  5  1  0
 31 10  1  0
 31 13  1  0
 27 15  1  0
 24 18  1  0
  1 33  1  0
  1 34  1  0
  1 35  1  0
  2 36  1  1
  3 37  1  0
  3 38  1  0
  4 39  1  0
  4 40  1  0
  5 41  1  1
  8 42  1  0
  8 43  1  0
  8 44  1  0
  9 45  1  0
  9 46  1  0
  9 47  1  0
 10 48  1  1
 11 49  1  0
 11 50  1  0
 12 51  1  0
 12 52  1  0
 14 53  1  0
 14 54  1  0
 14 55  1  0
 15 56  1  6
 16 57  1  0
 16 58  1  0
 17 59  1  0
 19 60  1  1
 20 61  1  0
 20 62  1  0
 21 63  1  0
 21 64  1  0
 22 65  1  1
 23 66  1  0
 25 67  1  0
 25 68  1  0
 25 69  1  0
 26 70  1  0
 26 71  1  0
 26 72  1  0
 28 73  1  0
 28 74  1  0
 28 75  1  0
 29 76  1  0
 29 77  1  0
 30 78  1  0
 30 79  1  0
 32 80  1  0
 32 81  1  0
 32 82  1  0
M  END
>  <meeko>  (5) 
{"is_sidechain": [false], "intermolecular_energy": 2.731, "internal_energy": -0.839}

$$$$
EPH_relaxed_0001_pdb2pqr_Repair_200_r2_0001_out
     RDKit          3D

 82 86  0  0  0  0  0  0  0  0999 V2000
    3.7010   18.1820    0.4530 C   0  0  0  0  0  0  0  0  0  0  0  0
    2.6660   18.6060   -0.5930 C   0  0  2  0  0  0  0  0  0  0  0  0
    1.9110   19.8840   -0.1780 C   0  0  0  0  0  0  0  0  0  0  0  0
    0.8250   19.6440    0.8750 C   0  0  0  0  0  0  0  0  0  0  0  0
   -0.5000   20.1910    0.4400 C   0  0  2  0  0  0  0  0  0  0  0  0
   -1.5100   20.1940    1.4570 O   0  0  0  0  0  0  0  0  0  0  0  0
   -1.7560   19.3480    0.3220 C   0  0  0  0  0  0  0  0  0  0  0  0
   -1.7460   17.8850    0.6400 C   0  0  0  0  0  0  0  0  0  0  0  0
   -2.8630   19.8320   -0.5620 C   0  0  0  0  0  0  0  0  0  0  0  0
    1.6770   17.4710   -0.8340 C   0  0  1  0  0  0  0  0  0  0  0  0
    0.5620   17.8560   -1.8430 C   0  0  0  0  0  0  0  0  0  0  0  0
    0.2280   16.5740   -2.6500 C   0  0  0  0  0  0  0  0  0  0  0  0
    0.9120   15.4300   -1.8660 C   0  0  1  0  0  0  0  0  0  0  0  0
   -0.0700   15.1020   -0.6970 C   0  0  0  0  0  0  0  0  0  0  0  0
    1.2790   14.1520   -2.6880 C   0  0  2  0  0  0  0  0  0  0  0  0
    0.0810   13.4050   -3.3010 C   0  0  0  0  0  0  0  0  0  0  0  0
   -0.5140   12.3390   -2.4410 C   0  0  0  0  0  0  0  0  0  0  0  0
    0.0630   11.8000   -1.3520 C   0  0  0  0  0  0  0  0  0  0  0  0
    1.4890   12.1910   -0.9400 C   0  0  1  0  0  0  0  0  0  0  0  0
    2.3010   10.9120   -0.6060 C   0  0  0  0  0  0  0  0  0  0  0  0
    1.6120   10.0380    0.4370 C   0  0  0  0  0  0  0  0  0  0  0  0
    0.2200    9.6220   -0.0340 C   0  0  2  0  0  0  0  0  0  0  0  0
    0.3560    8.7530   -1.1630 O   0  0  0  0  0  0  0  0  0  0  0  0
   -0.6860   10.8270   -0.4080 C   0  0  0  0  0  0  0  0  0  0  0  0
   -1.0800   11.6010    0.8750 C   0  0  0  0  0  0  0  0  0  0  0  0
   -2.0070   10.2660   -0.9990 C   0  0  0  0  0  0  0  0  0  0  0  0
    2.2580   13.1590   -1.9400 C   0  0  1  0  0  0  0  0  0  0  0  0
    2.9740   12.3230   -3.0440 C   0  0  0  0  0  0  0  0  0  0  0  0
    3.3910   13.9160   -1.1520 C   0  0  0  0  0  0  0  0  0  0  0  0
    2.9940   15.2350   -0.4610 C   0  0  0  0  0  0  0  0  0  0  0  0
    2.2370   16.1530   -1.4250 C   0  0  2  0  0  0  0  0  0  0  0  0
    3.2070   16.5180   -2.6000 C   0  0  0  0  0  0  0  0  0  0  0  0
    3.2933   18.3490    1.4609 H   0  0  0  0  0  0  0  0  0  0  0  0
    3.9361   17.1151    0.3247 H   0  0  0  0  0  0  0  0  0  0  0  0
    4.6170   18.7773    0.3247 H   0  0  0  0  0  0  0  0  0  0  0  0
    3.2080   18.8311   -1.5234 H   0  0  0  0  0  0  0  0  0  0  0  0
    2.6391   20.5999    0.2312 H   0  0  0  0  0  0  0  0  0  0  0  0
    1.4068   20.2657   -1.0781 H   0  0  0  0  0  0  0  0  0  0  0  0
    0.7255   18.5616    1.0441 H   0  0  0  0  0  0  0  0  0  0  0  0
    1.1229   20.1619    1.7986 H   0  0  0  0  0  0  0  0  0  0  0  0
   -0.0098   20.8860   -0.2576 H   0  0  0  0  0  0  0  0  0  0  0  0
   -1.7451   17.7470    1.7313 H   0  0  0  0  0  0  0  0  0  0  0  0
   -2.6409   17.4104    0.2112 H   0  0  0  0  0  0  0  0  0  0  0  0
   -0.8447   17.4227    0.2112 H   0  0  0  0  0  0  0  0  0  0  0  0
   -3.6952   20.1959    0.0585 H   0  0  0  0  0  0  0  0  0  0  0  0
   -2.4938   20.6508   -1.1970 H   0  0  0  0  0  0  0  0  0  0  0  0
   -3.2134   19.0050   -1.1970 H   0  0  0  0  0  0  0  0  0  0  0  0
    1.3324   17.3037    0.1972 H   0  0  0  0  0  0  0  0  0  0  0  0
   -0.3305   18.2086   -1.3053 H   0  0  0  0  0  0  0  0  0  0  0  0
    0.8936   18.6668   -2.5083 H   0  0  0  0  0  0  0  0  0  0  0  0
   -0.8597   16.4167   -2.6964 H   0  0  0  0  0  0  0  0  0  0  0  0
    0.5780   16.6335   -3.6911 H   0  0  0  0  0  0  0  0  0  0  0  0
    0.4358   15.2709    0.2651 H   0  0  0  0  0  0  0  0  0  0  0  0
   -0.9533   15.7539   -0.7663 H   0  0  0  0  0  0  0  0  0  0  0  0
   -0.3842   14.0501   -0.7663 H   0  0  0  0  0  0  0  0  0  0  0  0
    1.8377   14.5703   -3.5382 H   0  0  0  0  0  0  0  0  0  0  0  0
   -0.7045   14.1435   -3.5192 H   0  0  0  0  0  0  0  0  0  0  0  0
    0.4664   12.8942   -4.1958 H   0  0  0  0  0  0  0  0  0  0  0  0
   -1.5087   11.9625   -2.7219 H   0  0  0  0  0  0  0  0  0  0  0  0
    1.3859   12.8128   -0.0385 H   0  0  0  0  0  0  0  0  0  0  0  0
    2.4304   10.3256   -1.5277 H   0  0  0  0  0  0  0  0  0  0  0  0
    3.2682   11.2297   -0.1894 H   0  0  0  0  0  0  0  0  0  0  0  0
    2.2184    9.1365    0.6088 H   0  0  0  0  0  0  0  0  0  0  0  0
    1.5101   10.6156    1.3676 H   0  0  0  0  0  0  0  0  0  0  0  0
   -0.2724    9.1089    0.8052 H   0  0  0  0  0  0  0  0  0  0  0  0
   -0.4950    8.7460   -1.6320 H   0  0  0  0  0  0  0  0  0  0  0  0
   -0.7836   11.0188    1.7600 H   0  0  0  0  0  0  0  0  0  0  0  0
   -0.5676   12.5743    0.8880 H   0  0  0  0  0  0  0  0  0  0  0  0
   -2.1685   11.7594    0.8880 H   0  0  0  0  0  0  0  0  0  0  0  0
   -2.6825    9.9791   -0.1796 H   0  0  0  0  0  0  0  0  0  0  0  0
   -2.4884   11.0373   -1.6181 H   0  0  0  0  0  0  0  0  0  0  0  0
   -1.7863    9.3840   -1.6181 H   0  0  0  0  0  0  0  0  0  0  0  0
    3.6201   11.5686   -2.5714 H   0  0  0  0  0  0  0  0  0  0  0  0
    2.2214   11.8210   -3.6698 H   0  0  0  0  0  0  0  0  0  0  0  0
    3.5857   12.9895   -3.6698 H   0  0  0  0  0  0  0  0  0  0  0  0
    3.7691   13.2343   -0.3759 H   0  0  0  0  0  0  0  0  0  0  0  0
    4.1306   14.2016   -1.9145 H   0  0  0  0  0  0  0  0  0  0  0  0
    2.3498   15.0095    0.4017 H   0  0  0  0  0  0  0  0  0  0  0  0
    3.9099   15.7489   -0.1339 H   0  0  0  0  0  0  0  0  0  0  0  0
    4.1619   16.8773   -2.1890 H   0  0  0  0  0  0  0  0  0  0  0  0
    3.3863   15.6259   -3.2180 H   0  0  0  0  0  0  0  0  0  0  0  0
    2.7537   17.3071   -3.2180 H   0  0  0  0  0  0  0  0  0  0  0  0
  1  2  1  0
  2  3  1  0
  3  4  1  0
  4  5  1  0
  5  6  1  0
  6  7  1  0
  7  8  1  0
  7  9  1  0
  2 10  1  0
 10 11  1  0
 11 12  1  0
 12 13  1  0
 13 14  1  1
 13 15  1  0
 15 16  1  0
 16 17  1  0
 17 18  2  0
 18 19  1  0
 19 20  1  0
 20 21  1  0
 21 22  1  0
 22 23  1  0
 22 24  1  0
 24 25  1  0
 24 26  1  0
 19 27  1  0
 27 28  1  6
 27 29  1  0
 29 30  1  0
 30 31  1  0
 31 32  1  6
  7  5  1  0
 31 10  1  0
 31 13  1  0
 27 15  1  0
 24 18  1  0
  1 33  1  0
  1 34  1  0
  1 35  1  0
  2 36  1  6
  3 37  1  0
  3 38  1  0
  4 39  1  0
  4 40  1  0
  5 41  1  6
  8 42  1  0
  8 43  1  0
  8 44  1  0
  9 45  1  0
  9 46  1  0
  9 47  1  0
 10 48  1  1
 11 49  1  0
 11 50  1  0
 12 51  1  0
 12 52  1  0
 14 53  1  0
 14 54  1  0
 14 55  1  0
 15 56  1  6
 16 57  1  0
 16 58  1  0
 17 59  1  0
 19 60  1  1
 20 61  1  0
 20 62  1  0
 21 63  1  0
 21 64  1  0
 22 65  1  1
 23 66  1  0
 25 67  1  0
 25 68  1  0
 25 69  1  0
 26 70  1  0
 26 71  1  0
 26 72  1  0
 28 73  1  0
 28 74  1  0
 28 75  1  0
 29 76  1  0
 29 77  1  0
 30 78  1  0
 30 79  1  0
 32 80  1  0
 32 81  1  0
 32 82  1  0
M  END
>  <meeko>  (6) 
{"is_sidechain": [false], "intermolecular_energy": 2.731, "internal_energy": -0.839}

$$$$
EPH_relaxed_0001_pdb2pqr_Repair_200_r2_0001_out
     RDKit          3D

 82 86  0  0  0  0  0  0  0  0999 V2000
   -5.1460    5.8620   -1.7760 C   0  0  0  0  0  0  0  0  0  0  0  0
   -5.4560    7.3610   -1.8170 C   0  0  2  0  0  0  0  0  0  0  0  0
   -5.2320    8.0380   -0.4500 C   0  0  0  0  0  0  0  0  0  0  0  0
   -4.1850    9.1550   -0.4800 C   0  0  0  0  0  0  0  0  0  0  0  0
   -2.8200    8.6260   -0.8010 C   0  0  2  0  0  0  0  0  0  0  0  0
   -1.8110    8.9490    0.1650 O   0  0  0  0  0  0  0  0  0  0  0  0
   -1.6380    9.5130   -1.1450 C   0  0  0  0  0  0  0  0  0  0  0  0
   -1.7680   11.0040   -1.1880 C   0  0  0  0  0  0  0  0  0  0  0  0
   -0.4980    8.9200   -1.9120 C   0  0  0  0  0  0  0  0  0  0  0  0
   -6.8910    7.5820   -2.2800 C   0  0  1  0  0  0  0  0  0  0  0  0
   -7.1980    6.8820   -3.6300 C   0  0  0  0  0  0  0  0  0  0  0  0
   -8.6720    6.4050   -3.5620 C   0  0  0  0  0  0  0  0  0  0  0  0
   -9.2590    7.1290   -2.3280 C   0  0  1  0  0  0  0  0  0  0  0  0
   -9.6140    8.5620   -2.8350 C   0  0  0  0  0  0  0  0  0  0  0  0
  -10.4820    6.4400   -1.6400 C   0  0  2  0  0  0  0  0  0  0  0  0
  -11.7370    6.3090   -2.5210 C   0  0  0  0  0  0  0  0  0  0  0  0
  -12.6940    7.4520   -2.4420 C   0  0  0  0  0  0  0  0  0  0  0  0
  -12.6990    8.4040   -1.4910 C   0  0  0  0  0  0  0  0  0  0  0  0
  -11.7330    8.3330   -0.3010 C   0  0  1  0  0  0  0  0  0  0  0  0
  -12.5080    8.6150    1.0130 C   0  0  0  0  0  0  0  0  0  0  0  0
  -13.2810    9.9290    0.9660 C   0  0  0  0  0  0  0  0  0  0  0  0
  -14.2720    9.9380   -0.1950 C   0  0  2  0  0  0  0  0  0  0  0  0
  -15.2870    8.9620    0.0580 O   0  0  0  0  0  0  0  0  0  0  0  0
  -13.6070    9.6560   -1.5710 C   0  0  0  0  0  0  0  0  0  0  0  0
  -12.7320   10.8660   -1.9830 C   0  0  0  0  0  0  0  0  0  0  0  0
  -14.7340    9.5530   -2.6340 C   0  0  0  0  0  0  0  0  0  0  0  0
  -10.8370    7.0240   -0.2130 C   0  0  1  0  0  0  0  0  0  0  0  0
  -11.6080    5.9020    0.5480 C   0  0  0  0  0  0  0  0  0  0  0  0
   -9.5520    7.3370    0.6420 C   0  0  0  0  0  0  0  0  0  0  0  0
   -8.3350    7.9040   -0.1150 C   0  0  0  0  0  0  0  0  0  0  0  0
   -8.0230    7.0650   -1.3580 C   0  0  2  0  0  0  0  0  0  0  0  0
   -7.6410    5.6230   -0.8780 C   0  0  0  0  0  0  0  0  0  0  0  0
   -5.0774    5.5303   -0.7295 H   0  0  0  0  0  0  0  0  0  0  0  0
   -5.9485    5.3076   -2.2845 H   0  0  0  0  0  0  0  0  0  0  0  0
   -4.1894    5.6714   -2.2845 H   0  0  0  0  0  0  0  0  0  0  0  0
   -4.7597    7.8239   -2.5317 H   0  0  0  0  0  0  0  0  0  0  0  0
   -6.1877    8.4668   -0.1142 H   0  0  0  0  0  0  0  0  0  0  0  0
   -4.8558    7.2633    0.2344 H   0  0  0  0  0  0  0  0  0  0  0  0
   -4.4711    9.8915   -1.2454 H   0  0  0  0  0  0  0  0  0  0  0  0
   -4.1480    9.6175    0.5173 H   0  0  0  0  0  0  0  0  0  0  0  0
   -3.2525    7.7468   -1.3010 H   0  0  0  0  0  0  0  0  0  0  0  0
   -1.8024   11.3988   -0.1619 H   0  0  0  0  0  0  0  0  0  0  0  0
   -0.9038   11.4323   -1.7169 H   0  0  0  0  0  0  0  0  0  0  0  0
   -2.6933   11.2763   -1.7169 H   0  0  0  0  0  0  0  0  0  0  0  0
    0.2529    8.5294   -1.2094 H   0  0  0  0  0  0  0  0  0  0  0  0
   -0.8689    8.1006   -2.5452 H   0  0  0  0  0  0  0  0  0  0  0  0
   -0.0400    9.6941   -2.5452 H   0  0  0  0  0  0  0  0  0  0  0  0
   -6.9062    8.6814   -2.3142 H   0  0  0  0  0  0  0  0  0  0  0  0
   -7.0669    7.5896   -4.4619 H   0  0  0  0  0  0  0  0  0  0  0  0
   -6.5165    6.0354   -3.7997 H   0  0  0  0  0  0  0  0  0  0  0  0
   -9.2152    6.6907   -4.4748 H   0  0  0  0  0  0  0  0  0  0  0  0
   -8.7534    5.3109   -3.4820 H   0  0  0  0  0  0  0  0  0  0  0  0
   -9.7784    9.2256   -1.9732 H   0  0  0  0  0  0  0  0  0  0  0  0
   -8.7851    8.9511   -3.4445 H   0  0  0  0  0  0  0  0  0  0  0  0
  -10.5287    8.5192   -3.4445 H   0  0  0  0  0  0  0  0  0  0  0  0
  -10.1174    5.4141   -1.4833 H   0  0  0  0  0  0  0  0  0  0  0  0
  -11.4096    6.2116   -3.5666 H   0  0  0  0  0  0  0  0  0  0  0  0
  -12.2815    5.4299   -2.1460 H   0  0  0  0  0  0  0  0  0  0  0  0
  -13.4603    7.5220   -3.2281 H   0  0  0  0  0  0  0  0  0  0  0  0
  -10.9849    9.1218   -0.4689 H   0  0  0  0  0  0  0  0  0  0  0  0
  -13.2190    7.7937    1.1862 H   0  0  0  0  0  0  0  0  0  0  0  0
  -11.7706    8.6905    1.8257 H   0  0  0  0  0  0  0  0  0  0  0  0
  -13.8312   10.0569    1.9099 H   0  0  0  0  0  0  0  0  0  0  0  0
  -12.5655   10.7522    0.8231 H   0  0  0  0  0  0  0  0  0  0  0  0
  -14.6997   10.9496   -0.2555 H   0  0  0  0  0  0  0  0  0  0  0  0
  -14.8990    8.0850   -0.1050 H   0  0  0  0  0  0  0  0  0  0  0  0
  -12.3632   11.3759   -1.0808 H   0  0  0  0  0  0  0  0  0  0  0  0
  -11.8779   10.5144   -2.5804 H   0  0  0  0  0  0  0  0  0  0  0  0
  -13.3335   11.5670   -2.5804 H   0  0  0  0  0  0  0  0  0  0  0  0
  -15.7072    9.4641   -2.1291 H   0  0  0  0  0  0  0  0  0  0  0  0
  -14.7284   10.4554   -3.2630 H   0  0  0  0  0  0  0  0  0  0  0  0
  -14.5649    8.6666   -3.2630 H   0  0  0  0  0  0  0  0  0  0  0  0
  -11.5027    6.0553    1.6322 H   0  0  0  0  0  0  0  0  0  0  0  0
  -12.6728    5.9383    0.2743 H   0  0  0  0  0  0  0  0  0  0  0  0
  -11.1923    4.9210    0.2743 H   0  0  0  0  0  0  0  0  0  0  0  0
   -9.8352    8.0690    1.4127 H   0  0  0  0  0  0  0  0  0  0  0  0
   -9.2208    6.3629    1.0312 H   0  0  0  0  0  0  0  0  0  0  0  0
   -8.5525    8.9372   -0.4235 H   0  0  0  0  0  0  0  0  0  0  0  0
   -7.4623    7.8776    0.5541 H   0  0  0  0  0  0  0  0  0  0  0  0
   -7.6330    5.5927    0.2216 H   0  0  0  0  0  0  0  0  0  0  0  0
   -8.3791    4.9021   -1.2593 H   0  0  0  0  0  0  0  0  0  0  0  0
   -6.6427    5.3621   -1.2593 H   0  0  0  0  0  0  0  0  0  0  0  0
  1  2  1  0
  2  3  1  0
  3  4  1  0
  4  5  1  0
  5  6  1  0
  6  7  1  0
  7  8  1  0
  7  9  1  0
  2 10  1  0
 10 11  1  0
 11 12  1  0
 12 13  1  0
 13 14  1  6
 13 15  1  0
 15 16  1  0
 16 17  1  0
 17 18  2  0
 18 19  1  0
 19 20  1  0
 20 21  1  0
 21 22  1  0
 22 23  1  0
 22 24  1  0
 24 25  1  0
 24 26  1  0
 19 27  1  0
 27 28  1  1
 27 29  1  0
 29 30  1  0
 30 31  1  0
 31 32  1  1
  7  5  1  0
 31 10  1  0
 31 13  1  0
 27 15  1  0
 24 18  1  0
  1 33  1  0
  1 34  1  0
  1 35  1  0
  2 36  1  6
  3 37  1  0
  3 38  1  0
  4 39  1  0
  4 40  1  0
  5 41  1  6
  8 42  1  0
  8 43  1  0
  8 44  1  0
  9 45  1  0
  9 46  1  0
  9 47  1  0
 10 48  1  6
 11 49  1  0
 11 50  1  0
 12 51  1  0
 12 52  1  0
 14 53  1  0
 14 54  1  0
 14 55  1  0
 15 56  1  1
 16 57  1  0
 16 58  1  0
 17 59  1  0
 19 60  1  6
 20 61  1  0
 20 62  1  0
 21 63  1  0
 21 64  1  0
 22 65  1  6
 23 66  1  0
 25 67  1  0
 25 68  1  0
 25 69  1  0
 26 70  1  0
 26 71  1  0
 26 72  1  0
 28 73  1  0
 28 74  1  0
 28 75  1  0
 29 76  1  0
 29 77  1  0
 30 78  1  0
 30 79  1  0
 32 80  1  0
 32 81  1  0
 32 82  1  0
M  END
>  <meeko>  (7) 
{"is_sidechain": [false], "intermolecular_energy": 2.731, "internal_energy": -0.839}

$$$$
EPH_relaxed_0001_pdb2pqr_Repair_200_r2_0001_out
     RDKit          3D

 82 86  0  0  0  0  0  0  0  0999 V2000
   -0.8300   16.3720   -5.8260 C   0  0  0  0  0  0  0  0  0  0  0  0
    0.2370   15.6520   -6.6560 C   0  0  2  0  0  0  0  0  0  0  0  0
   -0.1870   15.4870   -8.1290 C   0  0  0  0  0  0  0  0  0  0  0  0
    0.4490   16.5120   -9.0710 C   0  0  0  0  0  0  0  0  0  0  0  0
    1.8490   16.1290   -9.4440 C   0  0  2  0  0  0  0  0  0  0  0  0
    2.3140   16.6870  -10.6800 O   0  0  0  0  0  0  0  0  0  0  0  0
    2.1880   15.2560  -10.6380 C   0  0  0  0  0  0  0  0  0  0  0  0
    1.1210   14.7130  -11.5350 C   0  0  0  0  0  0  0  0  0  0  0  0
    3.5000   14.5350  -10.6480 C   0  0  0  0  0  0  0  0  0  0  0  0
    0.5390   14.2890   -6.0450 C   0  0  1  0  0  0  0  0  0  0  0  0
    1.7620   13.5970   -6.7040 C   0  0  0  0  0  0  0  0  0  0  0  0
    2.4880   12.8090   -5.5830 C   0  0  0  0  0  0  0  0  0  0  0  0
    1.4880   12.8000   -4.4030 C   0  0  1  0  0  0  0  0  0  0  0  0
    0.4860   11.6500   -4.7350 C   0  0  0  0  0  0  0  0  0  0  0  0
    2.1050   12.6330   -2.9760 C   0  0  2  0  0  0  0  0  0  0  0  0
    2.8460   11.3060   -2.7360 C   0  0  0  0  0  0  0  0  0  0  0  0
    2.0070   10.1960   -2.1970 C   0  0  0  0  0  0  0  0  0  0  0  0
    0.7850   10.3340   -1.6490 C   0  0  0  0  0  0  0  0  0  0  0  0
    0.1680   11.7230   -1.4400 C   0  0  1  0  0  0  0  0  0  0  0  0
   -0.4260   11.8160   -0.0100 C   0  0  0  0  0  0  0  0  0  0  0  0
   -1.4100   10.6890    0.2900 C   0  0  0  0  0  0  0  0  0  0  0  0
   -0.7430    9.3260    0.1280 C   0  0  2  0  0  0  0  0  0  0  0  0
    0.2550    9.1780    1.1430 O   0  0  0  0  0  0  0  0  0  0  0  0
   -0.1000    9.1200   -1.2720 C   0  0  0  0  0  0  0  0  0  0  0  0
   -1.2120    8.9790   -2.3400 C   0  0  0  0  0  0  0  0  0  0  0  0
    0.6590    7.7660   -1.2540 C   0  0  0  0  0  0  0  0  0  0  0  0
    1.1040   12.9570   -1.7940 C   0  0  1  0  0  0  0  0  0  0  0  0
    1.9790   13.3330   -0.5600 C   0  0  0  0  0  0  0  0  0  0  0  0
    0.2040   14.2130   -2.1000 C   0  0  0  0  0  0  0  0  0  0  0  0
   -0.2750   14.3870   -3.5540 C   0  0  0  0  0  0  0  0  0  0  0  0
    0.8910   14.2480   -4.5370 C   0  0  2  0  0  0  0  0  0  0  0  0
    1.9060   15.4050   -4.2410 C   0  0  0  0  0  0  0  0  0  0  0  0
   -0.6196   16.2300   -4.7557 H   0  0  0  0  0  0  0  0  0  0  0  0
   -0.8160   17.4461   -6.0631 H   0  0  0  0  0  0  0  0  0  0  0  0
   -1.8208   15.9571   -6.0631 H   0  0  0  0  0  0  0  0  0  0  0  0
    1.1436   16.2748   -6.6412 H   0  0  0  0  0  0  0  0  0  0  0  0
    0.1042   14.4804   -8.4635 H   0  0  0  0  0  0  0  0  0  0  0  0
   -1.2749   15.6446   -8.1699 H   0  0  0  0  0  0  0  0  0  0  0  0
   -0.1577   16.5797   -9.9860 H   0  0  0  0  0  0  0  0  0  0  0  0
    0.4859   17.4799   -8.5496 H   0  0  0  0  0  0  0  0  0  0  0  0
    2.1413   16.0764   -8.3849 H   0  0  0  0  0  0  0  0  0  0  0  0
    0.3053   14.2979  -10.9249 H   0  0  0  0  0  0  0  0  0  0  0  0
    0.7292   15.5214  -12.1698 H   0  0  0  0  0  0  0  0  0  0  0  0
    1.5439   13.9205  -12.1698 H   0  0  0  0  0  0  0  0  0  0  0  0
    3.8274   14.3551   -9.6134 H   0  0  0  0  0  0  0  0  0  0  0  0
    3.3857   13.5730  -11.1690 H   0  0  0  0  0  0  0  0  0  0  0  0
    4.2509   15.1472  -11.1690 H   0  0  0  0  0  0  0  0  0  0  0  0
   -0.4259   13.7905   -6.2197 H   0  0  0  0  0  0  0  0  0  0  0  0
    1.4275   12.9094   -7.4947 H   0  0  0  0  0  0  0  0  0  0  0  0
    2.4332   14.3365   -7.1651 H   0  0  0  0  0  0  0  0  0  0  0  0
    2.7108   11.7830   -5.9112 H   0  0  0  0  0  0  0  0  0  0  0  0
    3.4517   13.2637   -5.3100 H   0  0  0  0  0  0  0  0  0  0  0  0
    0.1057   11.2136   -3.7996 H   0  0  0  0  0  0  0  0  0  0  0  0
   -0.3541   12.0530   -5.3197 H   0  0  0  0  0  0  0  0  0  0  0  0
    1.0002   10.8730   -5.3197 H   0  0  0  0  0  0  0  0  0  0  0  0
    2.8790   13.4145   -2.9622 H   0  0  0  0  0  0  0  0  0  0  0  0
    3.2711   10.9758   -3.6953 H   0  0  0  0  0  0  0  0  0  0  0  0
    3.6041   11.5155   -1.9670 H   0  0  0  0  0  0  0  0  0  0  0  0
    2.4221    9.1788   -2.2521 H   0  0  0  0  0  0  0  0  0  0  0  0
   -0.6367   11.8139   -2.1844 H   0  0  0  0  0  0  0  0  0  0  0  0
    0.3976   11.7679    0.7176 H   0  0  0  0  0  0  0  0  0  0  0  0
   -0.9752   12.7664    0.0620 H   0  0  0  0  0  0  0  0  0  0  0  0
   -1.7717   10.7924    1.3237 H   0  0  0  0  0  0  0  0  0  0  0  0
   -2.2483   10.7565   -0.4190 H   0  0  0  0  0  0  0  0  0  0  0  0
   -1.5273    8.5612    0.2273 H   0  0  0  0  0  0  0  0  0  0  0  0
   -0.0860    8.5500    1.8020 H   0  0  0  0  0  0  0  0  0  0  0  0
   -2.1851    8.8556   -1.8421 H   0  0  0  0  0  0  0  0  0  0  0  0
   -1.2335    9.8816   -2.9684 H   0  0  0  0  0  0  0  0  0  0  0  0
   -1.0075    8.0996   -2.9684 H   0  0  0  0  0  0  0  0  0  0  0  0
    0.8324    7.4567   -0.2127 H   0  0  0  0  0  0  0  0  0  0  0  0
    0.0578    7.0018   -1.7683 H   0  0  0  0  0  0  0  0  0  0  0  0
    1.6247    7.8801   -1.7683 H   0  0  0  0  0  0  0  0  0  0  0  0
    1.4305   13.0973    0.3639 H   0  0  0  0  0  0  0  0  0  0  0  0
    2.9166   12.7583   -0.5865 H   0  0  0  0  0  0  0  0  0  0  0  0
    2.2074   14.4087   -0.5865 H   0  0  0  0  0  0  0  0  0  0  0  0
   -0.6890   14.1460   -1.4612 H   0  0  0  0  0  0  0  0  0  0  0  0
    0.8476   15.0830   -1.9030 H   0  0  0  0  0  0  0  0  0  0  0  0
   -1.0285   13.6178   -3.7788 H   0  0  0  0  0  0  0  0  0  0  0  0
   -0.7065   15.3930   -3.6625 H   0  0  0  0  0  0  0  0  0  0  0  0
    2.0143   15.5284   -3.1533 H   0  0  0  0  0  0  0  0  0  0  0  0
    2.8832   15.1570   -4.6810 H   0  0  0  0  0  0  0  0  0  0  0  0
    1.5329   16.3416   -4.6810 H   0  0  0  0  0  0  0  0  0  0  0  0
  1  2  1  0
  2  3  1  0
  3  4  1  0
  4  5  1  0
  5  6  1  0
  6  7  1  0
  7  8  1  0
  7  9  1  0
  2 10  1  0
 10 11  1  0
 11 12  1  0
 12 13  1  0
 13 14  1  6
 13 15  1  0
 15 16  1  0
 16 17  1  0
 17 18  2  0
 18 19  1  0
 19 20  1  0
 20 21  1  0
 21 22  1  0
 22 23  1  0
 22 24  1  0
 24 25  1  0
 24 26  1  0
 19 27  1  0
 27 28  1  1
 27 29  1  0
 29 30  1  0
 30 31  1  0
 31 32  1  6
  7  5  1  0
 31 10  1  0
 31 13  1  0
 27 15  1  0
 24 18  1  0
  1 33  1  0
  1 34  1  0
  1 35  1  0
  2 36  1  6
  3 37  1  0
  3 38  1  0
  4 39  1  0
  4 40  1  0
  5 41  1  1
  8 42  1  0
  8 43  1  0
  8 44  1  0
  9 45  1  0
  9 46  1  0
  9 47  1  0
 10 48  1  1
 11 49  1  0
 11 50  1  0
 12 51  1  0
 12 52  1  0
 14 53  1  0
 14 54  1  0
 14 55  1  0
 15 56  1  6
 16 57  1  0
 16 58  1  0
 17 59  1  0
 19 60  1  6
 20 61  1  0
 20 62  1  0
 21 63  1  0
 21 64  1  0
 22 65  1  1
 23 66  1  0
 25 67  1  0
 25 68  1  0
 25 69  1  0
 26 70  1  0
 26 71  1  0
 26 72  1  0
 28 73  1  0
 28 74  1  0
 28 75  1  0
 29 76  1  0
 29 77  1  0
 30 78  1  0
 30 79  1  0
 32 80  1  0
 32 81  1  0
 32 82  1  0
M  END
>  <meeko>  (8) 
{"is_sidechain": [false], "intermolecular_energy": 2.731, "internal_energy": -0.839}

$$$$
EPH_relaxed_0001_pdb2pqr_Repair_200_r2_0001_out
     RDKit          3D

 82 86  0  0  0  0  0  0  0  0999 V2000
   -2.2030    7.8520   -2.0650 C   0  0  0  0  0  0  0  0  0  0  0  0
   -2.2080    8.4920   -0.6740 C   0  0  2  0  0  0  0  0  0  0  0  0
   -3.6130    8.4900   -0.0390 C   0  0  0  0  0  0  0  0  0  0  0  0
   -4.7510    8.5430   -1.0620 C   0  0  0  0  0  0  0  0  0  0  0  0
   -5.5300    7.2630   -1.0910 C   0  0  2  0  0  0  0  0  0  0  0  0
   -5.6370    6.6550   -2.3850 O   0  0  0  0  0  0  0  0  0  0  0  0
   -6.8650    7.1120   -1.7960 C   0  0  0  0  0  0  0  0  0  0  0  0
   -7.4990    8.2580   -2.5210 C   0  0  0  0  0  0  0  0  0  0  0  0
   -7.7780    6.0040   -1.3710 C   0  0  0  0  0  0  0  0  0  0  0  0
   -1.6750    9.9170   -0.7550 C   0  0  1  0  0  0  0  0  0  0  0  0
   -1.2200   10.4650    0.6240 C   0  0  0  0  0  0  0  0  0  0  0  0
    0.0040   11.3800    0.3610 C   0  0  0  0  0  0  0  0  0  0  0  0
    0.0090   11.5930   -1.1710 C   0  0  1  0  0  0  0  0  0  0  0  0
   -1.0450   12.7170   -1.4230 C   0  0  0  0  0  0  0  0  0  0  0  0
    1.3900   11.9410   -1.8160 C   0  0  2  0  0  0  0  0  0  0  0  0
    2.0180   13.2630   -1.3390 C   0  0  0  0  0  0  0  0  0  0  0  0
    1.6550   14.4680   -2.1420 C   0  0  0  0  0  0  0  0  0  0  0  0
    1.0920   14.4520   -3.3650 C   0  0  0  0  0  0  0  0  0  0  0  0
    0.8520   13.1300   -4.1050 C   0  0  1  0  0  0  0  0  0  0  0  0
    1.3340   13.2640   -5.5730 C   0  0  0  0  0  0  0  0  0  0  0  0
    0.7050   14.4550   -6.2890 C   0  0  0  0  0  0  0  0  0  0  0  0
    1.0150   15.7570   -5.5550 C   0  0  2  0  0  0  0  0  0  0  0  0
    2.4190   16.0150   -5.6460 O   0  0  0  0  0  0  0  0  0  0  0  0
    0.5830   15.7370   -4.0620 C   0  0  0  0  0  0  0  0  0  0  0  0
   -0.9630   15.7620   -3.9680 C   0  0  0  0  0  0  0  0  0  0  0  0
    1.0790   17.0530   -3.4040 C   0  0  0  0  0  0  0  0  0  0  0  0
    1.4160   11.8250   -3.3940 C   0  0  1  0  0  0  0  0  0  0  0  0
    2.9050   11.6000   -3.7990 C   0  0  0  0  0  0  0  0  0  0  0  0
    0.6200   10.5710   -3.9150 C   0  0  0  0  0  0  0  0  0  0  0  0
   -0.6740   10.2070   -3.1620 C   0  0  0  0  0  0  0  0  0  0  0  0
   -0.4340   10.1620   -1.6500 C   0  0  2  0  0  0  0  0  0  0  0  0
    0.6060    9.0250   -1.3630 C   0  0  0  0  0  0  0  0  0  0  0  0
   -2.1944    6.7566   -1.9646 H   0  0  0  0  0  0  0  0  0  0  0  0
   -3.1036    8.1628   -2.6148 H   0  0  0  0  0  0  0  0  0  0  0  0
   -1.3074    8.1768   -2.6148 H   0  0  0  0  0  0  0  0  0  0  0  0
   -1.5535    7.8869   -0.0294 H   0  0  0  0  0  0  0  0  0  0  0  0
   -3.7237    7.5717    0.5563 H   0  0  0  0  0  0  0  0  0  0  0  0
   -3.6897    9.3998    0.5745 H   0  0  0  0  0  0  0  0  0  0  0  0
   -5.4296    9.3675   -0.7980 H   0  0  0  0  0  0  0  0  0  0  0  0
   -4.3102    8.6989   -2.0577 H   0  0  0  0  0  0  0  0  0  0  0  0
   -5.2012    7.0130   -0.0715 H   0  0  0  0  0  0  0  0  0  0  0  0
   -7.8974    8.9782   -1.7912 H   0  0  0  0  0  0  0  0  0  0  0  0
   -6.7468    8.7537   -3.1523 H   0  0  0  0  0  0  0  0  0  0  0  0
   -8.3186    7.8842   -3.1523 H   0  0  0  0  0  0  0  0  0  0  0  0
   -7.8144    5.9599   -0.2725 H   0  0  0  0  0  0  0  0  0  0  0  0
   -8.7883    6.1902   -1.7641 H   0  0  0  0  0  0  0  0  0  0  0  0
   -7.4020    5.0479   -1.7641 H   0  0  0  0  0  0  0  0  0  0  0  0
   -2.5545   10.4183   -1.1853 H   0  0  0  0  0  0  0  0  0  0  0  0
   -2.0323   11.0434    1.0884 H   0  0  0  0  0  0  0  0  0  0  0  0
   -0.9593    9.6442    1.3083 H   0  0  0  0  0  0  0  0  0  0  0  0
   -0.1086   12.3399    0.8863 H   0  0  0  0  0  0  0  0  0  0  0  0
    0.9427   10.9359    0.7238 H   0  0  0  0  0  0  0  0  0  0  0  0
   -1.4070   13.1031   -0.4587 H   0  0  0  0  0  0  0  0  0  0  0  0
   -0.5801   13.5343   -1.9939 H   0  0  0  0  0  0  0  0  0  0  0  0
   -1.8904   12.3056   -1.9939 H   0  0  0  0  0  0  0  0  0  0  0  0
    2.0401   11.1436   -1.4268 H   0  0  0  0  0  0  0  0  0  0  0  0
    1.6970   13.4368   -0.3013 H   0  0  0  0  0  0  0  0  0  0  0  0
    3.1056   13.1403   -1.4492 H   0  0  0  0  0  0  0  0  0  0  0  0
    1.8652   15.4518   -1.6971 H   0  0  0  0  0  0  0  0  0  0  0  0
   -0.2348   12.9618   -4.0828 H   0  0  0  0  0  0  0  0  0  0  0  0
    2.4270   13.3883   -5.5753 H   0  0  0  0  0  0  0  0  0  0  0  0
    1.0289   12.3531   -6.1090 H   0  0  0  0  0  0  0  0  0  0  0  0
    1.1063   14.5136   -7.3115 H   0  0  0  0  0  0  0  0  0  0  0  0
   -0.3859   14.3154   -6.3120 H   0  0  0  0  0  0  0  0  0  0  0  0
    0.4325   16.5547   -6.0392 H   0  0  0  0  0  0  0  0  0  0  0  0
    2.8380   15.6470   -4.8500 H   0  0  0  0  0  0  0  0  0  0  0  0
   -1.2660   15.7669   -2.9106 H   0  0  0  0  0  0  0  0  0  0  0  0
   -1.3459   16.6665   -4.4633 H   0  0  0  0  0  0  0  0  0  0  0  0
   -1.3749   14.8704   -4.4633 H   0  0  0  0  0  0  0  0  0  0  0  0
    1.0411   16.9525   -2.3093 H   0  0  0  0  0  0  0  0  0  0  0  0
    2.1141   17.2526   -3.7183 H   0  0  0  0  0  0  0  0  0  0  0  0
    0.4332   17.8862   -3.7183 H   0  0  0  0  0  0  0  0  0  0  0  0
    3.5214   11.5069   -2.8927 H   0  0  0  0  0  0  0  0  0  0  0  0
    2.9878   10.6792   -4.3950 H   0  0  0  0  0  0  0  0  0  0  0  0
    3.2561   12.4553   -4.3950 H   0  0  0  0  0  0  0  0  0  0  0  0
    0.3520   10.7598   -4.9650 H   0  0  0  0  0  0  0  0  0  0  0  0
    1.2945    9.7164   -3.7576 H   0  0  0  0  0  0  0  0  0  0  0  0
   -1.4430   10.9622   -3.3820 H   0  0  0  0  0  0  0  0  0  0  0  0
   -1.0053    9.2121   -3.4944 H   0  0  0  0  0  0  0  0  0  0  0  0
    0.7211    8.8991   -0.2763 H   0  0  0  0  0  0  0  0  0  0  0  0
    0.2507    8.0828   -1.8056 H   0  0  0  0  0  0  0  0  0  0  0  0
    1.5761    9.2951   -1.8056 H   0  0  0  0  0  0  0  0  0  0  0  0
  1  2  1  0
  2  3  1  0
  3  4  1  0
  4  5  1  0
  5  6  1  0
  6  7  1  0
  7  8  1  0
  7  9  1  0
  2 10  1  0
 10 11  1  0
 11 12  1  0
 12 13  1  0
 13 14  1  1
 13 15  1  0
 15 16  1  0
 16 17  1  0
 17 18  2  0
 18 19  1  0
 19 20  1  0
 20 21  1  0
 21 22  1  0
 22 23  1  0
 22 24  1  0
 24 25  1  0
 24 26  1  0
 19 27  1  0
 27 28  1  6
 27 29  1  0
 29 30  1  0
 30 31  1  0
 31 32  1  6
  7  5  1  0
 31 10  1  0
 31 13  1  0
 27 15  1  0
 24 18  1  0
  1 33  1  0
  1 34  1  0
  1 35  1  0
  2 36  1  1
  3 37  1  0
  3 38  1  0
  4 39  1  0
  4 40  1  0
  5 41  1  1
  8 42  1  0
  8 43  1  0
  8 44  1  0
  9 45  1  0
  9 46  1  0
  9 47  1  0
 10 48  1  6
 11 49  1  0
 11 50  1  0
 12 51  1  0
 12 52  1  0
 14 53  1  0
 14 54  1  0
 14 55  1  0
 15 56  1  1
 16 57  1  0
 16 58  1  0
 17 59  1  0
 19 60  1  6
 20 61  1  0
 20 62  1  0
 21 63  1  0
 21 64  1  0
 22 65  1  6
 23 66  1  0
 25 67  1  0
 25 68  1  0
 25 69  1  0
 26 70  1  0
 26 71  1  0
 26 72  1  0
 28 73  1  0
 28 74  1  0
 28 75  1  0
 29 76  1  0
 29 77  1  0
 30 78  1  0
 30 79  1  0
 32 80  1  0
 32 81  1  0
 32 82  1  0
M  END
>  <meeko>  (9) 
{"is_sidechain": [false], "intermolecular_energy": 2.731, "internal_energy": -0.839}

$$$$
EPH_relaxed_0001_pdb2pqr_Repair_200_r2_0001_out
     RDKit          3D

 82 86  0  0  0  0  0  0  0  0999 V2000
   -4.0720    7.0280   -3.2240 C   0  0  0  0  0  0  0  0  0  0  0  0
   -4.1140    7.2500   -1.7100 C   0  0  2  0  0  0  0  0  0  0  0  0
   -5.5520    7.2090   -1.1560 C   0  0  0  0  0  0  0  0  0  0  0  0
   -6.6090    7.6940   -2.1510 C   0  0  0  0  0  0  0  0  0  0  0  0
   -7.9760    7.7250   -1.5370 C   0  0  2  0  0  0  0  0  0  0  0  0
   -8.4360    6.4640   -1.0350 O   0  0  0  0  0  0  0  0  0  0  0  0
   -9.1780    7.0170   -2.1340 C   0  0  0  0  0  0  0  0  0  0  0  0
   -9.0680    6.2280   -3.4010 C   0  0  0  0  0  0  0  0  0  0  0  0
  -10.5470    7.4910   -1.7590 C   0  0  0  0  0  0  0  0  0  0  0  0
   -3.4600    8.5820   -1.3620 C   0  0  1  0  0  0  0  0  0  0  0  0
   -3.9730    9.1680   -0.0200 C   0  0  0  0  0  0  0  0  0  0  0  0
   -2.7720    9.8900    0.6420 C   0  0  0  0  0  0  0  0  0  0  0  0
   -1.7080    9.9840   -0.4770 C   0  0  1  0  0  0  0  0  0  0  0  0
   -2.1370   11.2150   -1.3360 C   0  0  0  0  0  0  0  0  0  0  0  0
   -0.2210   10.0970   -0.0100 C   0  0  2  0  0  0  0  0  0  0  0  0
    0.1120   11.3550    0.8100 C   0  0  0  0  0  0  0  0  0  0  0  0
    0.5670   12.5330    0.0140 C   0  0  0  0  0  0  0  0  0  0  0  0
    0.9760   12.5000   -1.2680 C   0  0  0  0  0  0  0  0  0  0  0  0
    1.1010   11.1690   -2.0200 C   0  0  1  0  0  0  0  0  0  0  0  0
    2.4570   11.1260   -2.7740 C   0  0  0  0  0  0  0  0  0  0  0  0
    2.6570   12.3320   -3.6860 C   0  0  0  0  0  0  0  0  0  0  0  0
    2.5840   13.6340   -2.8920 C   0  0  2  0  0  0  0  0  0  0  0  0
    3.7030   13.6960   -2.0030 O   0  0  0  0  0  0  0  0  0  0  0  0
    1.2650   13.7840   -2.0830 C   0  0  0  0  0  0  0  0  0  0  0  0
    0.0820   14.0200   -3.0540 C   0  0  0  0  0  0  0  0  0  0  0  0
    1.3800   15.0690   -1.2180 C   0  0  0  0  0  0  0  0  0  0  0  0
    0.8400    9.8590   -1.1590 C   0  0  1  0  0  0  0  0  0  0  0  0
    2.1600    9.4080   -0.4610 C   0  0  0  0  0  0  0  0  0  0  0  0
    0.4250    8.6850   -2.1230 C   0  0  0  0  0  0  0  0  0  0  0  0
   -1.0750    8.5530   -2.4520 C   0  0  0  0  0  0  0  0  0  0  0  0
   -1.9210    8.5920   -1.1770 C   0  0  2  0  0  0  0  0  0  0  0  0
   -1.5280    7.3530   -0.3030 C   0  0  0  0  0  0  0  0  0  0  0  0
   -3.8713    5.9670   -3.4336 H   0  0  0  0  0  0  0  0  0  0  0  0
   -5.0398    7.3118   -3.6632 H   0  0  0  0  0  0  0  0  0  0  0  0
   -3.2748    7.6457   -3.6632 H   0  0  0  0  0  0  0  0  0  0  0  0
   -3.5559    6.4270   -1.2397 H   0  0  0  0  0  0  0  0  0  0  0  0
   -5.7874    6.1712   -0.8777 H   0  0  0  0  0  0  0  0  0  0  0  0
   -5.5841    7.8923   -0.2946 H   0  0  0  0  0  0  0  0  0  0  0  0
   -6.3452    8.7083   -2.4850 H   0  0  0  0  0  0  0  0  0  0  0  0
   -6.6296    6.9927   -2.9982 H   0  0  0  0  0  0  0  0  0  0  0  0
   -7.8239    8.7592   -1.1945 H   0  0  0  0  0  0  0  0  0  0  0  0
   -8.9198    5.1651   -3.1594 H   0  0  0  0  0  0  0  0  0  0  0  0
   -9.9912    6.3455   -3.9874 H   0  0  0  0  0  0  0  0  0  0  0  0
   -8.2121    6.5935   -3.9874 H   0  0  0  0  0  0  0  0  0  0  0  0
  -10.6368    7.5221   -0.6631 H   0  0  0  0  0  0  0  0  0  0  0  0
  -10.7114    8.4984   -2.1691 H   0  0  0  0  0  0  0  0  0  0  0  0
  -11.2991    6.8009   -2.1691 H   0  0  0  0  0  0  0  0  0  0  0  0
   -3.7356    9.1611   -2.2557 H   0  0  0  0  0  0  0  0  0  0  0  0
   -4.7885    9.8824   -0.2059 H   0  0  0  0  0  0  0  0  0  0  0  0
   -4.3649    8.3742    0.6330 H   0  0  0  0  0  0  0  0  0  0  0  0
   -3.0636   10.8934    0.9858 H   0  0  0  0  0  0  0  0  0  0  0  0
   -2.3997    9.3541    1.5276 H   0  0  0  0  0  0  0  0  0  0  0  0
   -2.4255   12.0430   -0.6718 H   0  0  0  0  0  0  0  0  0  0  0  0
   -1.2957   11.5303   -1.9707 H   0  0  0  0  0  0  0  0  0  0  0  0
   -2.9920   10.9391   -1.9707 H   0  0  0  0  0  0  0  0  0  0  0  0
   -0.1296    9.2522    0.6885 H   0  0  0  0  0  0  0  0  0  0  0  0
   -0.7915   11.6481    1.3648 H   0  0  0  0  0  0  0  0  0  0  0  0
    0.9574   11.0808    1.4582 H   0  0  0  0  0  0  0  0  0  0  0  0
    0.5681   13.5109    0.5178 H   0  0  0  0  0  0  0  0  0  0  0  0
    0.2713   11.1482   -2.7419 H   0  0  0  0  0  0  0  0  0  0  0  0
    3.2712   11.1041   -2.0346 H   0  0  0  0  0  0  0  0  0  0  0  0
    2.4597   10.2254   -3.4056 H   0  0  0  0  0  0  0  0  0  0  0  0
    3.6429   12.2592   -4.1683 H   0  0  0  0  0  0  0  0  0  0  0  0
    1.8584   12.3366   -4.4425 H   0  0  0  0  0  0  0  0  0  0  0  0
    2.6054   14.4629   -3.6149 H   0  0  0  0  0  0  0  0  0  0  0  0
    4.3000   12.9620   -2.2300 H   0  0  0  0  0  0  0  0  0  0  0  0
   -0.8358   14.2031   -2.4760 H   0  0  0  0  0  0  0  0  0  0  0  0
    0.2965   14.8931   -3.6879 H   0  0  0  0  0  0  0  0  0  0  0  0
   -0.0550   13.1315   -3.6879 H   0  0  0  0  0  0  0  0  0  0  0  0
    1.3557   14.7971   -0.1524 H   0  0  0  0  0  0  0  0  0  0  0  0
    2.3275   15.5799   -1.4445 H   0  0  0  0  0  0  0  0  0  0  0  0
    0.5383   15.7400   -1.4445 H   0  0  0  0  0  0  0  0  0  0  0  0
    2.0311    9.4520    0.6305 H   0  0  0  0  0  0  0  0  0  0  0  0
    2.3995    8.3771   -0.7606 H   0  0  0  0  0  0  0  0  0  0  0  0
    2.9803   10.0769   -0.7606 H   0  0  0  0  0  0  0  0  0  0  0  0
    0.9625    8.8280   -3.0720 H   0  0  0  0  0  0  0  0  0  0  0  0
    0.6830    7.7630   -1.5813 H   0  0  0  0  0  0  0  0  0  0  0  0
   -1.3740    9.3839   -3.1078 H   0  0  0  0  0  0  0  0  0  0  0  0
   -1.2405    7.5880   -2.9534 H   0  0  0  0  0  0  0  0  0  0  0  0
   -1.6110    7.6146    0.7622 H   0  0  0  0  0  0  0  0  0  0  0  0
   -2.2046    6.5156   -0.5287 H   0  0  0  0  0  0  0  0  0  0  0  0
   -0.4924    7.0587   -0.5287 H   0  0  0  0  0  0  0  0  0  0  0  0
  1  2  1  0
  2  3  1  0
  3  4  1  0
  4  5  1  0
  5  6  1  0
  6  7  1  0
  7  8  1  0
  7  9  1  0
  2 10  1  0
 10 11  1  0
 11 12  1  0
 12 13  1  0
 13 14  1  6
 13 15  1  0
 15 16  1  0
 16 17  1  0
 17 18  2  0
 18 19  1  0
 19 20  1  0
 20 21  1  0
 21 22  1  0
 22 23  1  0
 22 24  1  0
 24 25  1  0
 24 26  1  0
 19 27  1  0
 27 28  1  1
 27 29  1  0
 29 30  1  0
 30 31  1  0
 31 32  1  1
  7  5  1  0
 31 10  1  0
 31 13  1  0
 27 15  1  0
 24 18  1  0
  1 33  1  0
  1 34  1  0
  1 35  1  0
  2 36  1  1
  3 37  1  0
  3 38  1  0
  4 39  1  0
  4 40  1  0
  5 41  1  1
  8 42  1  0
  8 43  1  0
  8 44  1  0
  9 45  1  0
  9 46  1  0
  9 47  1  0
 10 48  1  6
 11 49  1  0
 11 50  1  0
 12 51  1  0
 12 52  1  0
 14 53  1  0
 14 54  1  0
 14 55  1  0
 15 56  1  1
 16 57  1  0
 16 58  1  0
 17 59  1  0
 19 60  1  6
 20 61  1  0
 20 62  1  0
 21 63  1  0
 21 64  1  0
 22 65  1  6
 23 66  1  0
 25 67  1  0
 25 68  1  0
 25 69  1  0
 26 70  1  0
 26 71  1  0
 26 72  1  0
 28 73  1  0
 28 74  1  0
 28 75  1  0
 29 76  1  0
 29 77  1  0
 30 78  1  0
 30 79  1  0
 32 80  1  0
 32 81  1  0
 32 82  1  0
M  END
>  <meeko>  (10) 
{"is_sidechain": [false], "intermolecular_energy": 2.731, "internal_energy": -0.839}

$$$$
EPH_relaxed_0001_pdb2pqr_Repair_200_r2_0001_out
     RDKit          3D

 82 86  0  0  0  0  0  0  0  0999 V2000
    0.3530    8.9460   -2.3870 C   0  0  0  0  0  0  0  0  0  0  0  0
    1.1150   10.0810   -3.0770 C   0  0  2  0  0  0  0  0  0  0  0  0
    2.6070   10.0970   -2.6890 C   0  0  0  0  0  0  0  0  0  0  0  0
    3.5330   10.5510   -3.8210 C   0  0  0  0  0  0  0  0  0  0  0  0
    4.9260   10.8050   -3.3310 C   0  0  2  0  0  0  0  0  0  0  0  0
    5.5110   12.0280   -3.7950 O   0  0  0  0  0  0  0  0  0  0  0  0
    6.1430   10.8160   -4.2370 C   0  0  0  0  0  0  0  0  0  0  0  0
    6.0220   10.5690   -5.7080 C   0  0  0  0  0  0  0  0  0  0  0  0
    7.4900   10.5820   -3.6290 C   0  0  0  0  0  0  0  0  0  0  0  0
    0.4740   11.4210   -2.7350 C   0  0  1  0  0  0  0  0  0  0  0  0
   -0.8600   11.2640   -1.9570 C   0  0  0  0  0  0  0  0  0  0  0  0
   -0.9380   12.4490   -0.9600 C   0  0  0  0  0  0  0  0  0  0  0  0
    0.1730   13.4210   -1.4210 C   0  0  1  0  0  0  0  0  0  0  0  0
   -0.4560   14.2140   -2.6090 C   0  0  0  0  0  0  0  0  0  0  0  0
    0.7510   14.3790   -0.3290 C   0  0  2  0  0  0  0  0  0  0  0  0
   -0.2630   15.3660    0.2750 C   0  0  0  0  0  0  0  0  0  0  0  0
   -0.3660   16.6810   -0.4240 C   0  0  0  0  0  0  0  0  0  0  0  0
    0.5200   17.1660   -1.3130 C   0  0  0  0  0  0  0  0  0  0  0  0
    1.8180   16.4090   -1.6240 C   0  0  1  0  0  0  0  0  0  0  0  0
    3.0120   17.4000   -1.6060 C   0  0  0  0  0  0  0  0  0  0  0  0
    2.7960   18.5930   -2.5320 C   0  0  0  0  0  0  0  0  0  0  0  0
    1.5280   19.3540   -2.1540 C   0  0  2  0  0  0  0  0  0  0  0  0
    1.7170   19.9560   -0.8690 O   0  0  0  0  0  0  0  0  0  0  0  0
    0.2590   18.4560   -2.1290 C   0  0  0  0  0  0  0  0  0  0  0  0
   -0.1180   18.0490   -3.5750 C   0  0  0  0  0  0  0  0  0  0  0  0
   -0.9210   19.3120   -1.5970 C   0  0  0  0  0  0  0  0  0  0  0  0
    2.0890   15.1100   -0.7510 C   0  0  1  0  0  0  0  0  0  0  0  0
    2.8190   15.5000    0.5710 C   0  0  0  0  0  0  0  0  0  0  0  0
    3.0700   14.1590   -1.5340 C   0  0  0  0  0  0  0  0  0  0  0  0
    2.4300   13.1530   -2.5100 C   0  0  0  0  0  0  0  0  0  0  0  0
    1.2840   12.3900   -1.8380 C   0  0  2  0  0  0  0  0  0  0  0  0
    1.8910   11.5640   -0.6530 C   0  0  0  0  0  0  0  0  0  0  0  0
    0.4310    9.0622   -1.2959 H   0  0  0  0  0  0  0  0  0  0  0  0
   -0.7054    8.9809   -2.6847 H   0  0  0  0  0  0  0  0  0  0  0  0
    0.7860    7.9796   -2.6847 H   0  0  0  0  0  0  0  0  0  0  0  0
    1.0569    9.9074   -4.1617 H   0  0  0  0  0  0  0  0  0  0  0  0
    2.7372   10.7819   -1.8381 H   0  0  0  0  0  0  0  0  0  0  0  0
    2.8857    9.0621   -2.4414 H   0  0  0  0  0  0  0  0  0  0  0  0
    3.5640    9.7670   -4.5920 H   0  0  0  0  0  0  0  0  0  0  0  0
    3.1372   11.4921   -4.2305 H   0  0  0  0  0  0  0  0  0  0  0  0
    4.7137   10.2820   -2.3868 H   0  0  0  0  0  0  0  0  0  0  0  0
    5.5439    9.5930   -5.8778 H   0  0  0  0  0  0  0  0  0  0  0  0
    5.4100   11.3613   -6.1637 H   0  0  0  0  0  0  0  0  0  0  0  0
    7.0232   10.5711   -6.1637 H   0  0  0  0  0  0  0  0  0  0  0  0
    7.4049   10.5968   -2.5324 H   0  0  0  0  0  0  0  0  0  0  0  0
    7.8740    9.6037   -3.9538 H   0  0  0  0  0  0  0  0  0  0  0  0
    8.1814   11.3735   -3.9538 H   0  0  0  0  0  0  0  0  0  0  0  0
    0.3747   11.8404   -3.7470 H   0  0  0  0  0  0  0  0  0  0  0  0
   -1.7109   11.2980   -2.6533 H   0  0  0  0  0  0  0  0  0  0  0  0
   -0.8982   10.2999   -1.4287 H   0  0  0  0  0  0  0  0  0  0  0  0
   -1.9239   12.9343   -1.0102 H   0  0  0  0  0  0  0  0  0  0  0  0
   -0.8032   12.1261    0.0829 H   0  0  0  0  0  0  0  0  0  0  0  0
   -1.0943   15.0188   -2.2155 H   0  0  0  0  0  0  0  0  0  0  0  0
    0.3452   14.6492   -3.2244 H   0  0  0  0  0  0  0  0  0  0  0  0
   -1.0622   13.5329   -3.2244 H   0  0  0  0  0  0  0  0  0  0  0  0
    1.0104   13.6833    0.4826 H   0  0  0  0  0  0  0  0  0  0  0  0
   -1.2547   14.8906    0.2530 H   0  0  0  0  0  0  0  0  0  0  0  0
    0.0962   15.5883    1.2907 H   0  0  0  0  0  0  0  0  0  0  0  0
   -1.2406   17.3067   -0.1926 H   0  0  0  0  0  0  0  0  0  0  0  0
    1.6934   15.9933   -2.6348 H   0  0  0  0  0  0  0  0  0  0  0  0
    3.1472   17.7706   -0.5792 H   0  0  0  0  0  0  0  0  0  0  0  0
    3.9010   16.8582   -1.9612 H   0  0  0  0  0  0  0  0  0  0  0  0
    3.6592   19.2703   -2.4539 H   0  0  0  0  0  0  0  0  0  0  0  0
    2.6896   18.2230   -3.5624 H   0  0  0  0  0  0  0  0  0  0  0  0
    1.3576   20.1163   -2.9285 H   0  0  0  0  0  0  0  0  0  0  0  0
    2.5020   19.5480   -0.4660 H   0  0  0  0  0  0  0  0  0  0  0  0
   -0.8652   17.2423   -3.5458 H   0  0  0  0  0  0  0  0  0  0  0  0
   -0.5372   18.9182   -4.1031 H   0  0  0  0  0  0  0  0  0  0  0  0
    0.7806   17.6975   -4.1031 H   0  0  0  0  0  0  0  0  0  0  0  0
   -0.9120   19.3055   -0.4971 H   0  0  0  0  0  0  0  0  0  0  0  0
   -0.8163   20.3456   -1.9584 H   0  0  0  0  0  0  0  0  0  0  0  0
   -1.8711   18.8916   -1.9584 H   0  0  0  0  0  0  0  0  0  0  0  0
    2.2153   15.1775    1.4321 H   0  0  0  0  0  0  0  0  0  0  0  0
    3.8015   15.0066    0.6066 H   0  0  0  0  0  0  0  0  0  0  0  0
    2.9551   16.5910    0.6066 H   0  0  0  0  0  0  0  0  0  0  0  0
    3.7572   14.7934   -2.1130 H   0  0  0  0  0  0  0  0  0  0  0  0
    3.5526   13.5431   -0.7608 H   0  0  0  0  0  0  0  0  0  0  0  0
    2.0375   13.6972   -3.3817 H   0  0  0  0  0  0  0  0  0  0  0  0
    3.1979   12.4295   -2.8214 H   0  0  0  0  0  0  0  0  0  0  0  0
    1.5686   12.0028    0.3028 H   0  0  0  0  0  0  0  0  0  0  0  0
    1.5415   10.5228   -0.7149 H   0  0  0  0  0  0  0  0  0  0  0  0
    2.9890   11.5865   -0.7149 H   0  0  0  0  0  0  0  0  0  0  0  0
  1  2  1  0
  2  3  1  0
  3  4  1  0
  4  5  1  0
  5  6  1  0
  6  7  1  0
  7  8  1  0
  7  9  1  0
  2 10  1  0
 10 11  1  0
 11 12  1  0
 12 13  1  0
 13 14  1  6
 13 15  1  0
 15 16  1  0
 16 17  1  0
 17 18  2  0
 18 19  1  0
 19 20  1  0
 20 21  1  0
 21 22  1  0
 22 23  1  0
 22 24  1  0
 24 25  1  0
 24 26  1  0
 19 27  1  0
 27 28  1  1
 27 29  1  0
 29 30  1  0
 30 31  1  0
 31 32  1  1
  7  5  1  0
 31 10  1  0
 31 13  1  0
 27 15  1  0
 24 18  1  0
  1 33  1  0
  1 34  1  0
  1 35  1  0
  2 36  1  6
  3 37  1  0
  3 38  1  0
  4 39  1  0
  4 40  1  0
  5 41  1  1
  8 42  1  0
  8 43  1  0
  8 44  1  0
  9 45  1  0
  9 46  1  0
  9 47  1  0
 10 48  1  6
 11 49  1  0
 11 50  1  0
 12 51  1  0
 12 52  1  0
 14 53  1  0
 14 54  1  0
 14 55  1  0
 15 56  1  1
 16 57  1  0
 16 58  1  0
 17 59  1  0
 19 60  1  6
 20 61  1  0
 20 62  1  0
 21 63  1  0
 21 64  1  0
 22 65  1  6
 23 66  1  0
 25 67  1  0
 25 68  1  0
 25 69  1  0
 26 70  1  0
 26 71  1  0
 26 72  1  0
 28 73  1  0
 28 74  1  0
 28 75  1  0
 29 76  1  0
 29 77  1  0
 30 78  1  0
 30 79  1  0
 32 80  1  0
 32 81  1  0
 32 82  1  0
M  END
>  <meeko>  (11) 
{"is_sidechain": [false], "intermolecular_energy": 2.731, "internal_energy": -0.839}

$$$$
EPH_relaxed_0001_pdb2pqr_Repair_200_r2_0001_out
     RDKit          3D

 82 86  0  0  0  0  0  0  0  0999 V2000
    0.9050   14.9110   -2.6250 C   0  0  0  0  0  0  0  0  0  0  0  0
    1.1690   14.2410   -3.9770 C   0  0  2  0  0  0  0  0  0  0  0  0
    0.4630   14.9730   -5.1360 C   0  0  0  0  0  0  0  0  0  0  0  0
    0.9900   14.5850   -6.5200 C   0  0  0  0  0  0  0  0  0  0  0  0
    0.7630   15.6740   -7.5240 C   0  0  2  0  0  0  0  0  0  0  0  0
    0.4090   15.2150   -8.8350 O   0  0  0  0  0  0  0  0  0  0  0  0
    1.6630   15.9070   -8.7240 C   0  0  0  0  0  0  0  0  0  0  0  0
    2.8590   15.0440   -8.9810 C   0  0  0  0  0  0  0  0  0  0  0  0
    1.6660   17.2590   -9.3650 C   0  0  0  0  0  0  0  0  0  0  0  0
    0.7210   12.7840   -3.9310 C   0  0  1  0  0  0  0  0  0  0  0  0
    1.8520   11.7980   -4.3260 C   0  0  0  0  0  0  0  0  0  0  0  0
    1.6600   10.5270   -3.4600 C   0  0  0  0  0  0  0  0  0  0  0  0
    0.2490   10.6830   -2.8450 C   0  0  1  0  0  0  0  0  0  0  0  0
   -0.7320   10.2210   -3.9680 C   0  0  0  0  0  0  0  0  0  0  0  0
   -0.0080    9.9220   -1.5040 C   0  0  2  0  0  0  0  0  0  0  0  0
    0.0990    8.3900   -1.5930 C   0  0  0  0  0  0  0  0  0  0  0  0
   -1.1740    7.6790   -1.9140 C   0  0  0  0  0  0  0  0  0  0  0  0
   -2.4080    8.2140   -1.8440 C   0  0  0  0  0  0  0  0  0  0  0  0
   -2.6200    9.6370   -1.3120 C   0  0  1  0  0  0  0  0  0  0  0  0
   -3.7940    9.6410   -0.2980 C   0  0  0  0  0  0  0  0  0  0  0  0
   -5.0700    9.0390   -0.8790 C   0  0  0  0  0  0  0  0  0  0  0  0
   -4.8340    7.6040   -1.3440 C   0  0  2  0  0  0  0  0  0  0  0  0
   -4.5680    6.7870   -0.1990 O   0  0  0  0  0  0  0  0  0  0  0  0
   -3.6660    7.4740   -2.3610 C   0  0  0  0  0  0  0  0  0  0  0  0
   -4.0800    8.1060   -3.7130 C   0  0  0  0  0  0  0  0  0  0  0  0
   -3.4410    5.9630   -2.6390 C   0  0  0  0  0  0  0  0  0  0  0  0
   -1.3250   10.3670   -0.7490 C   0  0  1  0  0  0  0  0  0  0  0  0
   -1.1210   10.0040    0.7540 C   0  0  0  0  0  0  0  0  0  0  0  0
   -1.5490   11.9240   -0.8020 C   0  0  0  0  0  0  0  0  0  0  0  0
   -1.1640   12.6370   -2.1130 C   0  0  0  0  0  0  0  0  0  0  0  0
    0.2420   12.2300   -2.5650 C   0  0  2  0  0  0  0  0  0  0  0  0
    1.2530   12.7030   -1.4660 C   0  0  0  0  0  0  0  0  0  0  0  0
    1.1774   14.2198   -1.8138 H   0  0  0  0  0  0  0  0  0  0  0  0
    1.5096   15.8264   -2.5452 H   0  0  0  0  0  0  0  0  0  0  0  0
   -0.1616   15.1679   -2.5452 H   0  0  0  0  0  0  0  0  0  0  0  0
    2.2515   14.2917   -4.1658 H   0  0  0  0  0  0  0  0  0  0  0  0
   -0.6104   14.7360   -5.0940 H   0  0  0  0  0  0  0  0  0  0  0  0
    0.6607   16.0472   -5.0060 H   0  0  0  0  0  0  0  0  0  0  0  0
    2.0694   14.3860   -6.4477 H   0  0  0  0  0  0  0  0  0  0  0  0
    0.4461   13.6898   -6.8558 H   0  0  0  0  0  0  0  0  0  0  0  0
    0.3870   16.3494   -6.7415 H   0  0  0  0  0  0  0  0  0  0  0  0
    3.2963   14.7285   -8.0222 H   0  0  0  0  0  0  0  0  0  0  0  0
    2.5542   14.1564   -9.5548 H   0  0  0  0  0  0  0  0  0  0  0  0
    3.6053   15.6131   -9.5548 H   0  0  0  0  0  0  0  0  0  0  0  0
    1.6677   18.0346   -8.5850 H   0  0  0  0  0  0  0  0  0  0  0  0
    2.5644   17.3662   -9.9906 H   0  0  0  0  0  0  0  0  0  0  0  0
    0.7681   17.3702   -9.9906 H   0  0  0  0  0  0  0  0  0  0  0  0
   -0.1223   12.8283   -4.6359 H   0  0  0  0  0  0  0  0  0  0  0  0
    1.7771   11.5438   -5.3936 H   0  0  0  0  0  0  0  0  0  0  0  0
    2.8427   12.2452   -4.1569 H   0  0  0  0  0  0  0  0  0  0  0  0
    1.7145    9.6214   -4.0821 H   0  0  0  0  0  0  0  0  0  0  0  0
    2.4407   10.4238   -2.6919 H   0  0  0  0  0  0  0  0  0  0  0  0
   -1.6374    9.7946   -3.5114 H   0  0  0  0  0  0  0  0  0  0  0  0
   -1.0076   11.0840   -4.5920 H   0  0  0  0  0  0  0  0  0  0  0  0
   -0.2423    9.4589   -4.5920 H   0  0  0  0  0  0  0  0  0  0  0  0
    0.8403   10.2448   -0.8826 H   0  0  0  0  0  0  0  0  0  0  0  0
    0.8316    8.1455   -2.3762 H   0  0  0  0  0  0  0  0  0  0  0  0
    0.3945    8.0470   -0.5905 H   0  0  0  0  0  0  0  0  0  0  0  0
   -1.0976    6.6296   -2.2348 H   0  0  0  0  0  0  0  0  0  0  0  0
   -2.8792   10.2529   -2.1858 H   0  0  0  0  0  0  0  0  0  0  0  0
   -3.4988    9.0564    0.5858 H   0  0  0  0  0  0  0  0  0  0  0  0
   -4.0070   10.6883   -0.0375 H   0  0  0  0  0  0  0  0  0  0  0  0
   -5.8537    9.0430   -0.1072 H   0  0  0  0  0  0  0  0  0  0  0  0
   -5.3799    9.6422   -1.7451 H   0  0  0  0  0  0  0  0  0  0  0  0
   -5.7433    7.2724   -1.8667 H   0  0  0  0  0  0  0  0  0  0  0  0
   -4.0990    7.3360    0.4520 H   0  0  0  0  0  0  0  0  0  0  0  0
   -4.6741    9.0129   -3.5272 H   0  0  0  0  0  0  0  0  0  0  0  0
   -3.1787    8.3691   -4.2860 H   0  0  0  0  0  0  0  0  0  0  0  0
   -4.6813    7.3848   -4.2860 H   0  0  0  0  0  0  0  0  0  0  0  0
   -3.3605    5.4225   -1.6843 H   0  0  0  0  0  0  0  0  0  0  0  0
   -4.2899    5.5657   -3.2148 H   0  0  0  0  0  0  0  0  0  0  0  0
   -2.5132    5.8303   -3.2148 H   0  0  0  0  0  0  0  0  0  0  0  0
   -1.5627   10.7899    1.3842 H   0  0  0  0  0  0  0  0  0  0  0  0
   -1.6112    9.0430    0.9689 H   0  0  0  0  0  0  0  0  0  0  0  0
   -0.0452    9.9230    0.9689 H   0  0  0  0  0  0  0  0  0  0  0  0
   -2.6176   12.1128   -0.6219 H   0  0  0  0  0  0  0  0  0  0  0  0
   -0.8729   12.3383   -0.0396 H   0  0  0  0  0  0  0  0  0  0  0  0
   -1.8868   12.3651   -2.8964 H   0  0  0  0  0  0  0  0  0  0  0  0
   -1.1762   13.7230   -1.9387 H   0  0  0  0  0  0  0  0  0  0  0  0
    0.8306   12.5054   -0.4697 H   0  0  0  0  0  0  0  0  0  0  0  0
    2.1998   12.1544   -1.5782 H   0  0  0  0  0  0  0  0  0  0  0  0
    1.4386   13.7814   -1.5782 H   0  0  0  0  0  0  0  0  0  0  0  0
  1  2  1  0
  2  3  1  0
  3  4  1  0
  4  5  1  0
  5  6  1  0
  6  7  1  0
  7  8  1  0
  7  9  1  0
  2 10  1  0
 10 11  1  0
 11 12  1  0
 12 13  1  0
 13 14  1  6
 13 15  1  0
 15 16  1  0
 16 17  1  0
 17 18  2  0
 18 19  1  0
 19 20  1  0
 20 21  1  0
 21 22  1  0
 22 23  1  0
 22 24  1  0
 24 25  1  0
 24 26  1  0
 19 27  1  0
 27 28  1  1
 27 29  1  0
 29 30  1  0
 30 31  1  0
 31 32  1  1
  7  5  1  0
 31 10  1  0
 31 13  1  0
 27 15  1  0
 24 18  1  0
  1 33  1  0
  1 34  1  0
  1 35  1  0
  2 36  1  6
  3 37  1  0
  3 38  1  0
  4 39  1  0
  4 40  1  0
  5 41  1  1
  8 42  1  0
  8 43  1  0
  8 44  1  0
  9 45  1  0
  9 46  1  0
  9 47  1  0
 10 48  1  6
 11 49  1  0
 11 50  1  0
 12 51  1  0
 12 52  1  0
 14 53  1  0
 14 54  1  0
 14 55  1  0
 15 56  1  1
 16 57  1  0
 16 58  1  0
 17 59  1  0
 19 60  1  6
 20 61  1  0
 20 62  1  0
 21 63  1  0
 21 64  1  0
 22 65  1  6
 23 66  1  0
 25 67  1  0
 25 68  1  0
 25 69  1  0
 26 70  1  0
 26 71  1  0
 26 72  1  0
 28 73  1  0
 28 74  1  0
 28 75  1  0
 29 76  1  0
 29 77  1  0
 30 78  1  0
 30 79  1  0
 32 80  1  0
 32 81  1  0
 32 82  1  0
M  END
>  <meeko>  (12) 
{"is_sidechain": [false], "intermolecular_energy": 2.731, "internal_energy": -0.839}

$$$$
EPH_relaxed_0001_pdb2pqr_Repair_200_r2_0001_out
     RDKit          3D

 82 86  0  0  0  0  0  0  0  0999 V2000
    0.2380    9.3410   -2.4840 C   0  0  0  0  0  0  0  0  0  0  0  0
    1.2620   10.3900   -2.9290 C   0  0  2  0  0  0  0  0  0  0  0  0
    2.6860    9.8060   -3.0260 C   0  0  0  0  0  0  0  0  0  0  0  0
    3.6220   10.6140   -3.9290 C   0  0  0  0  0  0  0  0  0  0  0  0
    5.0090   10.6870   -3.3660 C   0  0  2  0  0  0  0  0  0  0  0  0
    5.6620   11.9500   -3.5470 O   0  0  0  0  0  0  0  0  0  0  0  0
    6.2530   10.8290   -4.2230 C   0  0  0  0  0  0  0  0  0  0  0  0
    6.1680   10.9050   -5.7150 C   0  0  0  0  0  0  0  0  0  0  0  0
    7.5690   10.4030   -3.6500 C   0  0  0  0  0  0  0  0  0  0  0  0
    1.2470   11.5710   -1.9650 C   0  0  1  0  0  0  0  0  0  0  0  0
    2.2980   11.4310   -0.8320 C   0  0  0  0  0  0  0  0  0  0  0  0
    2.8150   12.8590   -0.5220 C   0  0  0  0  0  0  0  0  0  0  0  0
    1.8190   13.7990   -1.2410 C   0  0  1  0  0  0  0  0  0  0  0  0
    0.5940   13.8970   -0.2790 C   0  0  0  0  0  0  0  0  0  0  0  0
    2.3620   15.2120   -1.6320 C   0  0  2  0  0  0  0  0  0  0  0  0
    2.7890   16.0970   -0.4480 C   0  0  0  0  0  0  0  0  0  0  0  0
    1.7170   16.9720    0.1130 C   0  0  0  0  0  0  0  0  0  0  0  0
    0.5470   17.2590   -0.4870 C   0  0  0  0  0  0  0  0  0  0  0  0
    0.2470   16.7590   -1.9060 C   0  0  1  0  0  0  0  0  0  0  0  0
   -0.3350   17.9220   -2.7520 C   0  0  0  0  0  0  0  0  0  0  0  0
   -1.5470   18.5750   -2.0950 C   0  0  0  0  0  0  0  0  0  0  0  0
   -1.1940   19.1100   -0.7100 C   0  0  2  0  0  0  0  0  0  0  0  0
   -0.2690   20.1930   -0.8560 O   0  0  0  0  0  0  0  0  0  0  0  0
   -0.5890   18.0300    0.2300 C   0  0  0  0  0  0  0  0  0  0  0  0
   -1.6870   17.0140    0.6300 C   0  0  0  0  0  0  0  0  0  0  0  0
   -0.1460   18.7310    1.5420 C   0  0  0  0  0  0  0  0  0  0  0  0
    1.4370   16.0050   -2.6420 C   0  0  1  0  0  0  0  0  0  0  0  0
    2.3530   17.0370   -3.3680 C   0  0  0  0  0  0  0  0  0  0  0  0
    0.8400   15.0750   -3.7630 C   0  0  0  0  0  0  0  0  0  0  0  0
    0.4340   13.6500   -3.3410 C   0  0  0  0  0  0  0  0  0  0  0  0
    1.5570   12.9710   -2.5520 C   0  0  2  0  0  0  0  0  0  0  0  0
    2.7960   12.8380   -3.5020 C   0  0  0  0  0  0  0  0  0  0  0  0
    0.2033    9.3055   -1.3851 H   0  0  0  0  0  0  0  0  0  0  0  0
   -0.7550    9.6095   -2.8737 H   0  0  0  0  0  0  0  0  0  0  0  0
    0.5304    8.3548   -2.8737 H   0  0  0  0  0  0  0  0  0  0  0  0
    0.9750   10.7281   -3.9357 H   0  0  0  0  0  0  0  0  0  0  0  0
    3.1188    9.7761   -2.0152 H   0  0  0  0  0  0  0  0  0  0  0  0
    2.5934    8.8049   -3.4724 H   0  0  0  0  0  0  0  0  0  0  0  0
    3.6637   10.1353   -4.9185 H   0  0  0  0  0  0  0  0  0  0  0  0
    3.2276   11.6382   -4.0028 H   0  0  0  0  0  0  0  0  0  0  0  0
    4.7445    9.9871   -2.5597 H   0  0  0  0  0  0  0  0  0  0  0  0
    5.3763   11.6129   -6.0016 H   0  0  0  0  0  0  0  0  0  0  0  0
    7.1313   11.2485   -6.1201 H   0  0  0  0  0  0  0  0  0  0  0  0
    5.9340    9.9095   -6.1201 H   0  0  0  0  0  0  0  0  0  0  0  0
    7.5137   10.4209   -2.5515 H   0  0  0  0  0  0  0  0  0  0  0  0
    7.8035    9.3831   -3.9887 H   0  0  0  0  0  0  0  0  0  0  0  0
    8.3567   11.0920   -3.9887 H   0  0  0  0  0  0  0  0  0  0  0  0
    0.1993   11.5253   -1.6331 H   0  0  0  0  0  0  0  0  0  0  0  0
    1.8331   10.9938    0.0639 H   0  0  0  0  0  0  0  0  0  0  0  0
    3.1226   10.7704   -1.1379 H   0  0  0  0  0  0  0  0  0  0  0  0
    2.8123   13.0462    0.5619 H   0  0  0  0  0  0  0  0  0  0  0  0
    3.8505   13.0105   -0.8608 H   0  0  0  0  0  0  0  0  0  0  0  0
    0.9434   13.8690    0.7636 H   0  0  0  0  0  0  0  0  0  0  0  0
    0.0592   14.8408   -0.4613 H   0  0  0  0  0  0  0  0  0  0  0  0
   -0.0840   13.0502   -0.4613 H   0  0  0  0  0  0  0  0  0  0  0  0
    3.2886   14.9677   -2.1721 H   0  0  0  0  0  0  0  0  0  0  0  0
    3.1463   15.4383    0.3573 H   0  0  0  0  0  0  0  0  0  0  0  0
    3.5624   16.7750   -0.8381 H   0  0  0  0  0  0  0  0  0  0  0  0
    1.8991   17.4202    1.1009 H   0  0  0  0  0  0  0  0  0  0  0  0
   -0.5054   15.9642   -1.7957 H   0  0  0  0  0  0  0  0  0  0  0  0
    0.4461   18.6846   -2.8873 H   0  0  0  0  0  0  0  0  0  0  0  0
   -0.6630   17.5025   -3.7145 H   0  0  0  0  0  0  0  0  0  0  0  0
   -1.8932   19.4075   -2.7251 H   0  0  0  0  0  0  0  0  0  0  0  0
   -2.3386   17.8187   -1.9881 H   0  0  0  0  0  0  0  0  0  0  0  0
   -2.1295   19.4462   -0.2390 H   0  0  0  0  0  0  0  0  0  0  0  0
    0.6160   19.8560   -0.6350 H   0  0  0  0  0  0  0  0  0  0  0  0
   -1.7504   16.9554    1.7266 H   0  0  0  0  0  0  0  0  0  0  0  0
   -2.6553   17.3417    0.2238 H   0  0  0  0  0  0  0  0  0  0  0  0
   -1.4353   16.0232    0.2238 H   0  0  0  0  0  0  0  0  0  0  0  0
   -0.5097   18.1555    2.4060 H   0  0  0  0  0  0  0  0  0  0  0  0
    0.9521   18.7873    1.5749 H   0  0  0  0  0  0  0  0  0  0  0  0
   -0.5664   19.7470    1.5749 H   0  0  0  0  0  0  0  0  0  0  0  0
    2.8890   17.6408   -2.6209 H   0  0  0  0  0  0  0  0  0  0  0  0
    3.0798   16.5029   -3.9976 H   0  0  0  0  0  0  0  0  0  0  0  0
    1.7364   17.6953   -3.9976 H   0  0  0  0  0  0  0  0  0  0  0  0
   -0.0560   15.5710   -4.1644 H   0  0  0  0  0  0  0  0  0  0  0  0
    1.6559   14.9387   -4.4881 H   0  0  0  0  0  0  0  0  0  0  0  0
   -0.4664   13.7040   -2.7114 H   0  0  0  0  0  0  0  0  0  0  0  0
    0.2353   13.0591   -4.2473 H   0  0  0  0  0  0  0  0  0  0  0  0
    3.7111   12.7398   -2.8995 H   0  0  0  0  0  0  0  0  0  0  0  0
    2.6775   11.9474   -4.1367 H   0  0  0  0  0  0  0  0  0  0  0  0
    2.8692   13.7334   -4.1367 H   0  0  0  0  0  0  0  0  0  0  0  0
  1  2  1  0
  2  3  1  0
  3  4  1  0
  4  5  1  0
  5  6  1  0
  6  7  1  0
  7  8  1  0
  7  9  1  0
  2 10  1  0
 10 11  1  0
 11 12  1  0
 12 13  1  0
 13 14  1  1
 13 15  1  0
 15 16  1  0
 16 17  1  0
 17 18  2  0
 18 19  1  0
 19 20  1  0
 20 21  1  0
 21 22  1  0
 22 23  1  0
 22 24  1  0
 24 25  1  0
 24 26  1  0
 19 27  1  0
 27 28  1  6
 27 29  1  0
 29 30  1  0
 30 31  1  0
 31 32  1  6
  7  5  1  0
 31 10  1  0
 31 13  1  0
 27 15  1  0
 24 18  1  0
  1 33  1  0
  1 34  1  0
  1 35  1  0
  2 36  1  6
  3 37  1  0
  3 38  1  0
  4 39  1  0
  4 40  1  0
  5 41  1  1
  8 42  1  0
  8 43  1  0
  8 44  1  0
  9 45  1  0
  9 46  1  0
  9 47  1  0
 10 48  1  1
 11 49  1  0
 11 50  1  0
 12 51  1  0
 12 52  1  0
 14 53  1  0
 14 54  1  0
 14 55  1  0
 15 56  1  6
 16 57  1  0
 16 58  1  0
 17 59  1  0
 19 60  1  1
 20 61  1  0
 20 62  1  0
 21 63  1  0
 21 64  1  0
 22 65  1  1
 23 66  1  0
 25 67  1  0
 25 68  1  0
 25 69  1  0
 26 70  1  0
 26 71  1  0
 26 72  1  0
 28 73  1  0
 28 74  1  0
 28 75  1  0
 29 76  1  0
 29 77  1  0
 30 78  1  0
 30 79  1  0
 32 80  1  0
 32 81  1  0
 32 82  1  0
M  END
>  <meeko>  (13) 
{"is_sidechain": [false], "intermolecular_energy": 2.731, "internal_energy": -0.839}

$$$$
EPH_relaxed_0001_pdb2pqr_Repair_200_r2_0001_out
     RDKit          3D

 82 86  0  0  0  0  0  0  0  0999 V2000
   -2.4200    7.7580   -0.0120 C   0  0  0  0  0  0  0  0  0  0  0  0
   -3.0810    9.1390   -0.0520 C   0  0  2  0  0  0  0  0  0  0  0  0
   -4.5640    9.0610   -0.4680 C   0  0  0  0  0  0  0  0  0  0  0  0
   -5.0890    7.6300   -0.6100 C   0  0  0  0  0  0  0  0  0  0  0  0
   -5.8970    7.4580   -1.8600 C   0  0  2  0  0  0  0  0  0  0  0  0
   -6.8500    8.5000   -2.1060 O   0  0  0  0  0  0  0  0  0  0  0  0
   -7.3910    7.1920   -1.8610 C   0  0  0  0  0  0  0  0  0  0  0  0
   -8.1650    7.0820   -0.5850 C   0  0  0  0  0  0  0  0  0  0  0  0
   -8.0040    6.5570   -3.0710 C   0  0  0  0  0  0  0  0  0  0  0  0
   -2.3190   10.0520   -1.0060 C   0  0  1  0  0  0  0  0  0  0  0  0
   -2.9860   11.4450   -1.1590 C   0  0  0  0  0  0  0  0  0  0  0  0
   -1.8380   12.4730   -1.3330 C   0  0  0  0  0  0  0  0  0  0  0  0
   -0.5820   11.6120   -1.6060 C   0  0  1  0  0  0  0  0  0  0  0  0
   -0.6620   11.2560   -3.1240 C   0  0  0  0  0  0  0  0  0  0  0  0
    0.7930   12.2600   -1.2370 C   0  0  2  0  0  0  0  0  0  0  0  0
    1.1430   13.5380   -2.0190 C   0  0  0  0  0  0  0  0  0  0  0  0
    1.9030   13.3220   -3.2860 C   0  0  0  0  0  0  0  0  0  0  0  0
    2.5350   12.1860   -3.6350 C   0  0  0  0  0  0  0  0  0  0  0  0
    2.6070   10.9960   -2.6700 C   0  0  1  0  0  0  0  0  0  0  0  0
    4.0580   10.4500   -2.6270 C   0  0  0  0  0  0  0  0  0  0  0  0
    4.5970   10.1100   -4.0130 C   0  0  0  0  0  0  0  0  0  0  0  0
    4.5630   11.3330   -4.9260 C   0  0  2  0  0  0  0  0  0  0  0  0
    5.4940   12.3020   -4.4340 O   0  0  0  0  0  0  0  0  0  0  0  0
    3.1520   11.9750   -5.0400 C   0  0  0  0  0  0  0  0  0  0  0  0
    2.2180   11.0390   -5.8460 C   0  0  0  0  0  0  0  0  0  0  0  0
    3.2860   13.2770   -5.8740 C   0  0  0  0  0  0  0  0  0  0  0  0
    2.0040   11.2420   -1.2200 C   0  0  1  0  0  0  0  0  0  0  0  0
    3.0920   11.8610   -0.2900 C   0  0  0  0  0  0  0  0  0  0  0  0
    1.6130    9.8560   -0.5830 C   0  0  0  0  0  0  0  0  0  0  0  0
    0.1980    9.3270   -0.8880 C   0  0  0  0  0  0  0  0  0  0  0  0
   -0.8580   10.4070   -0.6350 C   0  0  2  0  0  0  0  0  0  0  0  0
   -0.8160   10.7700    0.8880 C   0  0  0  0  0  0  0  0  0  0  0  0
   -2.2734    7.4518    1.0343 H   0  0  0  0  0  0  0  0  0  0  0  0
   -3.0660    7.0274   -0.5208 H   0  0  0  0  0  0  0  0  0  0  0  0
   -1.4458    7.8029   -0.5208 H   0  0  0  0  0  0  0  0  0  0  0  0
   -3.0456    9.5530    0.9665 H   0  0  0  0  0  0  0  0  0  0  0  0
   -5.1660    9.5777    0.2939 H   0  0  0  0  0  0  0  0  0  0  0  0
   -4.6453    9.5329   -1.4583 H   0  0  0  0  0  0  0  0  0  0  0  0
   -4.2344    6.9380   -0.6398 H   0  0  0  0  0  0  0  0  0  0  0  0
   -5.7393    7.4162    0.2510 H   0  0  0  0  0  0  0  0  0  0  0  0
   -5.0573    6.9539   -2.3607 H   0  0  0  0  0  0  0  0  0  0  0  0
   -7.4791    7.1795    0.2694 H   0  0  0  0  0  0  0  0  0  0  0  0
   -8.9188    7.8820   -0.5432 H   0  0  0  0  0  0  0  0  0  0  0  0
   -8.6660    6.1036   -0.5432 H   0  0  0  0  0  0  0  0  0  0  0  0
   -8.7360    5.7987   -2.7561 H   0  0  0  0  0  0  0  0  0  0  0  0
   -8.5093    7.3267   -3.6728 H   0  0  0  0  0  0  0  0  0  0  0  0
   -7.2169    6.0792   -3.6728 H   0  0  0  0  0  0  0  0  0  0  0  0
   -2.3354    9.4283   -1.9119 H   0  0  0  0  0  0  0  0  0  0  0  0
   -3.6418   11.4562   -2.0421 H   0  0  0  0  0  0  0  0  0  0  0  0
   -3.6031   11.6864   -0.2810 H   0  0  0  0  0  0  0  0  0  0  0  0
   -2.0417   13.1428   -2.1814 H   0  0  0  0  0  0  0  0  0  0  0  0
   -1.7180   13.1181   -0.4501 H   0  0  0  0  0  0  0  0  0  0  0  0
   -0.9019   10.1886   -3.2381 H   0  0  0  0  0  0  0  0  0  0  0  0
   -1.4465   11.8612   -3.6017 H   0  0  0  0  0  0  0  0  0  0  0  0
    0.3060   11.4674   -3.6017 H   0  0  0  0  0  0  0  0  0  0  0  0
    0.6316   12.5818   -0.1976 H   0  0  0  0  0  0  0  0  0  0  0  0
    0.2030   14.0513   -2.2697 H   0  0  0  0  0  0  0  0  0  0  0  0
    1.8038   14.1245   -1.3638 H   0  0  0  0  0  0  0  0  0  0  0  0
    1.9504   14.1624   -3.9941 H   0  0  0  0  0  0  0  0  0  0  0  0
    1.9329   10.2302   -3.0813 H   0  0  0  0  0  0  0  0  0  0  0  0
    4.7082   11.2124   -2.1732 H   0  0  0  0  0  0  0  0  0  0  0  0
    4.0480    9.5222   -2.0361 H   0  0  0  0  0  0  0  0  0  0  0  0
    5.6354    9.7592   -3.9195 H   0  0  0  0  0  0  0  0  0  0  0  0
    3.9644    9.3252   -4.4532 H   0  0  0  0  0  0  0  0  0  0  0  0
    4.8364   10.9966   -5.9370 H   0  0  0  0  0  0  0  0  0  0  0  0
    6.0230   11.8750   -3.7390 H   0  0  0  0  0  0  0  0  0  0  0  0
    1.6156   10.4353   -5.1513 H   0  0  0  0  0  0  0  0  0  0  0  0
    1.5517   11.6428   -6.4796 H   0  0  0  0  0  0  0  0  0  0  0  0
    2.8233   10.3740   -6.4796 H   0  0  0  0  0  0  0  0  0  0  0  0
    3.3747   14.1390   -5.1964 H   0  0  0  0  0  0  0  0  0  0  0  0
    4.1826   13.2155   -6.5084 H   0  0  0  0  0  0  0  0  0  0  0  0
    2.3957   13.3994   -6.5084 H   0  0  0  0  0  0  0  0  0  0  0  0
    2.8102   11.7007    0.7611 H   0  0  0  0  0  0  0  0  0  0  0  0
    4.0607   11.3788   -0.4876 H   0  0  0  0  0  0  0  0  0  0  0  0
    3.1725   12.9401   -0.4876 H   0  0  0  0  0  0  0  0  0  0  0  0
    2.3335    9.1079   -0.9453 H   0  0  0  0  0  0  0  0  0  0  0  0
    1.6303   10.0231    0.5041 H   0  0  0  0  0  0  0  0  0  0  0  0
    0.1495    9.0164   -1.9421 H   0  0  0  0  0  0  0  0  0  0  0  0
   -0.0076    8.4737   -0.2250 H   0  0  0  0  0  0  0  0  0  0  0  0
   -0.9221    9.8532    1.4865 H   0  0  0  0  0  0  0  0  0  0  0  0
    0.1440   11.2526    1.1236 H   0  0  0  0  0  0  0  0  0  0  0  0
   -1.6404   11.4591    1.1236 H   0  0  0  0  0  0  0  0  0  0  0  0
  1  2  1  0
  2  3  1  0
  3  4  1  0
  4  5  1  0
  5  6  1  0
  6  7  1  0
  7  8  1  0
  7  9  1  0
  2 10  1  0
 10 11  1  0
 11 12  1  0
 12 13  1  0
 13 14  1  6
 13 15  1  0
 15 16  1  0
 16 17  1  0
 17 18  2  0
 18 19  1  0
 19 20  1  0
 20 21  1  0
 21 22  1  0
 22 23  1  0
 22 24  1  0
 24 25  1  0
 24 26  1  0
 19 27  1  0
 27 28  1  1
 27 29  1  0
 29 30  1  0
 30 31  1  0
 31 32  1  1
  7  5  1  0
 31 10  1  0
 31 13  1  0
 27 15  1  0
 24 18  1  0
  1 33  1  0
  1 34  1  0
  1 35  1  0
  2 36  1  1
  3 37  1  0
  3 38  1  0
  4 39  1  0
  4 40  1  0
  5 41  1  6
  8 42  1  0
  8 43  1  0
  8 44  1  0
  9 45  1  0
  9 46  1  0
  9 47  1  0
 10 48  1  6
 11 49  1  0
 11 50  1  0
 12 51  1  0
 12 52  1  0
 14 53  1  0
 14 54  1  0
 14 55  1  0
 15 56  1  1
 16 57  1  0
 16 58  1  0
 17 59  1  0
 19 60  1  6
 20 61  1  0
 20 62  1  0
 21 63  1  0
 21 64  1  0
 22 65  1  6
 23 66  1  0
 25 67  1  0
 25 68  1  0
 25 69  1  0
 26 70  1  0
 26 71  1  0
 26 72  1  0
 28 73  1  0
 28 74  1  0
 28 75  1  0
 29 76  1  0
 29 77  1  0
 30 78  1  0
 30 79  1  0
 32 80  1  0
 32 81  1  0
 32 82  1  0
M  END
>  <meeko>  (14) 
{"is_sidechain": [false], "intermolecular_energy": 2.731, "internal_energy": -0.839}

$$$$
EPH_relaxed_0001_pdb2pqr_Repair_200_r2_0001_out
     RDKit          3D

 82 86  0  0  0  0  0  0  0  0999 V2000
    0.3550   11.3840   -5.2450 C   0  0  0  0  0  0  0  0  0  0  0  0
    1.0260   10.7740   -4.0120 C   0  0  2  0  0  0  0  0  0  0  0  0
    0.3420    9.4650   -3.5670 C   0  0  0  0  0  0  0  0  0  0  0  0
    0.1380    9.3620   -2.0530 C   0  0  0  0  0  0  0  0  0  0  0  0
   -1.3150    9.3860   -1.6860 C   0  0  2  0  0  0  0  0  0  0  0  0
   -1.8620   10.6960   -1.4920 O   0  0  0  0  0  0  0  0  0  0  0  0
   -1.8300    9.8450   -0.3350 C   0  0  0  0  0  0  0  0  0  0  0  0
   -0.8960   10.3110    0.7380 C   0  0  0  0  0  0  0  0  0  0  0  0
   -3.1820    9.3820    0.1110 C   0  0  0  0  0  0  0  0  0  0  0  0
    1.0220   11.7790   -2.8670 C   0  0  1  0  0  0  0  0  0  0  0  0
    2.0180   11.4030   -1.7380 C   0  0  0  0  0  0  0  0  0  0  0  0
    2.5820   12.7340   -1.1770 C   0  0  0  0  0  0  0  0  0  0  0  0
    1.6580   13.8270   -1.7630 C   0  0  1  0  0  0  0  0  0  0  0  0
    0.3990   13.8260   -0.8400 C   0  0  0  0  0  0  0  0  0  0  0  0
    2.2760   15.2570   -1.8940 C   0  0  2  0  0  0  0  0  0  0  0  0
    2.6910   15.9130   -0.5660 C   0  0  0  0  0  0  0  0  0  0  0  0
    1.6350   16.7360    0.0960 C   0  0  0  0  0  0  0  0  0  0  0  0
    0.5040   17.1740   -0.4870 C   0  0  0  0  0  0  0  0  0  0  0  0
    0.2420   16.9300   -1.9790 C   0  0  1  0  0  0  0  0  0  0  0  0
   -0.2540   18.2430   -2.6390 C   0  0  0  0  0  0  0  0  0  0  0  0
   -1.4630   18.8370   -1.9240 C   0  0  0  0  0  0  0  0  0  0  0  0
   -1.1450   19.1200   -0.4580 C   0  0  2  0  0  0  0  0  0  0  0  0
   -0.1700   20.1650   -0.3910 O   0  0  0  0  0  0  0  0  0  0  0  0
   -0.6260   17.8710    0.3080 C   0  0  0  0  0  0  0  0  0  0  0  0
   -1.7830   16.8590    0.4970 C   0  0  0  0  0  0  0  0  0  0  0  0
   -0.2100   18.3250    1.7340 C   0  0  0  0  0  0  0  0  0  0  0  0
    1.4280   16.2500   -2.7890 C   0  0  1  0  0  0  0  0  0  0  0  0
    2.4170   17.3410   -3.3020 C   0  0  0  0  0  0  0  0  0  0  0  0
    0.8400   15.5470   -4.0700 C   0  0  0  0  0  0  0  0  0  0  0  0
    0.3560   14.0940   -3.9040 C   0  0  0  0  0  0  0  0  0  0  0  0
    1.4160   13.2400   -3.2010 C   0  0  2  0  0  0  0  0  0  0  0  0
    2.6860   13.2050   -4.1180 C   0  0  0  0  0  0  0  0  0  0  0  0
   -0.4239   12.0921   -4.9259 H   0  0  0  0  0  0  0  0  0  0  0  0
    1.1075   11.9137   -5.8476 H   0  0  0  0  0  0  0  0  0  0  0  0
   -0.1008   10.5846   -5.8476 H   0  0  0  0  0  0  0  0  0  0  0  0
    2.0624   10.5284   -4.2867 H   0  0  0  0  0  0  0  0  0  0  0  0
   -0.6419    9.4038   -4.0551 H   0  0  0  0  0  0  0  0  0  0  0  0
    1.0071    8.6389   -3.8591 H   0  0  0  0  0  0  0  0  0  0  0  0
    0.5799    8.4196   -1.6971 H   0  0  0  0  0  0  0  0  0  0  0  0
    0.6248   10.2286   -1.5819 H   0  0  0  0  0  0  0  0  0  0  0  0
   -1.5028    8.4774   -2.2770 H   0  0  0  0  0  0  0  0  0  0  0  0
   -1.3324   10.0933    1.7240 H   0  0  0  0  0  0  0  0  0  0  0  0
    0.0663    9.7874    0.6393 H   0  0  0  0  0  0  0  0  0  0  0  0
   -0.7356   11.3948    0.6393 H   0  0  0  0  0  0  0  0  0  0  0  0
   -3.2208    9.3687    1.2102 H   0  0  0  0  0  0  0  0  0  0  0  0
   -3.9503   10.0683   -0.2748 H   0  0  0  0  0  0  0  0  0  0  0  0
   -3.3683    8.3688   -0.2748 H   0  0  0  0  0  0  0  0  0  0  0  0
   -0.0399   11.7307   -2.5840 H   0  0  0  0  0  0  0  0  0  0  0  0
    1.4980   10.8473   -0.9437 H   0  0  0  0  0  0  0  0  0  0  0  0
    2.8258   10.7623   -2.1213 H   0  0  0  0  0  0  0  0  0  0  0  0
    2.5420   12.7400   -0.0777 H   0  0  0  0  0  0  0  0  0  0  0  0
    3.6363   12.8885   -1.4503 H   0  0  0  0  0  0  0  0  0  0  0  0
    0.7165   13.8263    0.2132 H   0  0  0  0  0  0  0  0  0  0  0  0
   -0.2040   14.7237   -1.0414 H   0  0  0  0  0  0  0  0  0  0  0  0
   -0.2026   12.9274   -1.0414 H   0  0  0  0  0  0  0  0  0  0  0  0
    3.2132   15.0600   -2.4352 H   0  0  0  0  0  0  0  0  0  0  0  0
    2.9857   15.1141    0.1303 H   0  0  0  0  0  0  0  0  0  0  0  0
    3.5085   16.6069   -0.8115 H   0  0  0  0  0  0  0  0  0  0  0  0
    1.7954   17.0072    1.1499 H   0  0  0  0  0  0  0  0  0  0  0  0
   -0.5479   16.1661   -2.0281 H   0  0  0  0  0  0  0  0  0  0  0  0
    0.5638   18.9784   -2.6190 H   0  0  0  0  0  0  0  0  0  0  0  0
   -0.5592   18.0044   -3.6685 H   0  0  0  0  0  0  0  0  0  0  0  0
   -1.7477   19.7774   -2.4187 H   0  0  0  0  0  0  0  0  0  0  0  0
   -2.2894   18.1125   -1.9705 H   0  0  0  0  0  0  0  0  0  0  0  0
   -2.0833   19.4206    0.0311 H   0  0  0  0  0  0  0  0  0  0  0  0
    0.7080   19.7470   -0.3690 H   0  0  0  0  0  0  0  0  0  0  0  0
   -1.9617   16.7027    1.5711 H   0  0  0  0  0  0  0  0  0  0  0  0
   -2.6959   17.2538    0.0271 H   0  0  0  0  0  0  0  0  0  0  0  0
   -1.5133   15.9017    0.0271 H   0  0  0  0  0  0  0  0  0  0  0  0
   -0.7550   17.7302    2.4818 H   0  0  0  0  0  0  0  0  0  0  0  0
    0.8720   18.1764    1.8651 H   0  0  0  0  0  0  0  0  0  0  0  0
   -0.4524   19.3899    1.8651 H   0  0  0  0  0  0  0  0  0  0  0  0
    2.8787   17.8503   -2.4433 H   0  0  0  0  0  0  0  0  0  0  0  0
    3.2004   16.8679   -3.9123 H   0  0  0  0  0  0  0  0  0  0  0  0
    1.8696   18.0744   -3.9123 H   0  0  0  0  0  0  0  0  0  0  0  0
   -0.0160   16.1456   -4.4149 H   0  0  0  0  0  0  0  0  0  0  0  0
    1.6792   15.4918   -4.7790 H   0  0  0  0  0  0  0  0  0  0  0  0
   -0.5663   14.0882   -3.3046 H   0  0  0  0  0  0  0  0  0  0  0  0
    0.1694   13.6703   -4.9018 H   0  0  0  0  0  0  0  0  0  0  0  0
    3.5899   13.1801   -3.4917 H   0  0  0  0  0  0  0  0  0  0  0  0
    2.6551   12.3074   -4.7531 H   0  0  0  0  0  0  0  0  0  0  0  0
    2.7046   14.1030   -4.7531 H   0  0  0  0  0  0  0  0  0  0  0  0
  1  2  1  0
  2  3  1  0
  3  4  1  0
  4  5  1  0
  5  6  1  0
  6  7  1  0
  7  8  1  0
  7  9  1  0
  2 10  1  0
 10 11  1  0
 11 12  1  0
 12 13  1  0
 13 14  1  1
 13 15  1  0
 15 16  1  0
 16 17  1  0
 17 18  2  0
 18 19  1  0
 19 20  1  0
 20 21  1  0
 21 22  1  0
 22 23  1  0
 22 24  1  0
 24 25  1  0
 24 26  1  0
 19 27  1  0
 27 28  1  6
 27 29  1  0
 29 30  1  0
 30 31  1  0
 31 32  1  6
  7  5  1  0
 31 10  1  0
 31 13  1  0
 27 15  1  0
 24 18  1  0
  1 33  1  0
  1 34  1  0
  1 35  1  0
  2 36  1  6
  3 37  1  0
  3 38  1  0
  4 39  1  0
  4 40  1  0
  5 41  1  6
  8 42  1  0
  8 43  1  0
  8 44  1  0
  9 45  1  0
  9 46  1  0
  9 47  1  0
 10 48  1  1
 11 49  1  0
 11 50  1  0
 12 51  1  0
 12 52  1  0
 14 53  1  0
 14 54  1  0
 14 55  1  0
 15 56  1  6
 16 57  1  0
 16 58  1  0
 17 59  1  0
 19 60  1  1
 20 61  1  0
 20 62  1  0
 21 63  1  0
 21 64  1  0
 22 65  1  1
 23 66  1  0
 25 67  1  0
 25 68  1  0
 25 69  1  0
 26 70  1  0
 26 71  1  0
 26 72  1  0
 28 73  1  0
 28 74  1  0
 28 75  1  0
 29 76  1  0
 29 77  1  0
 30 78  1  0
 30 79  1  0
 32 80  1  0
 32 81  1  0
 32 82  1  0
M  END
>  <meeko>  (15) 
{"is_sidechain": [false], "intermolecular_energy": 2.731, "internal_energy": -0.839}

$$$$
EPH_relaxed_0001_pdb2pqr_Repair_200_r2_0001_out
     RDKit          3D

 82 86  0  0  0  0  0  0  0  0999 V2000
    0.2160   17.7670   -2.9140 C   0  0  0  0  0  0  0  0  0  0  0  0
    0.0240   17.0280   -1.5870 C   0  0  2  0  0  0  0  0  0  0  0  0
    0.1000   17.9790   -0.3760 C   0  0  0  0  0  0  0  0  0  0  0  0
    0.9390   19.2340   -0.6320 C   0  0  0  0  0  0  0  0  0  0  0  0
    1.9170   19.4830    0.4770 C   0  0  2  0  0  0  0  0  0  0  0  0
    3.0980   20.1950    0.0850 O   0  0  0  0  0  0  0  0  0  0  0  0
    3.2920   18.8450    0.5380 C   0  0  0  0  0  0  0  0  0  0  0  0
    3.7660   17.9070   -0.5280 C   0  0  0  0  0  0  0  0  0  0  0  0
    3.9770   18.7470    1.8650 C   0  0  0  0  0  0  0  0  0  0  0  0
    1.0680   15.9260   -1.4500 C   0  0  1  0  0  0  0  0  0  0  0  0
    1.1900   15.3950    0.0040 C   0  0  0  0  0  0  0  0  0  0  0  0
    1.4970   13.8790   -0.0980 C   0  0  0  0  0  0  0  0  0  0  0  0
    1.8690   13.6550   -1.5820 C   0  0  1  0  0  0  0  0  0  0  0  0
    3.3630   14.0930   -1.6920 C   0  0  0  0  0  0  0  0  0  0  0  0
    1.6490   12.2100   -2.1390 C   0  0  2  0  0  0  0  0  0  0  0  0
    2.4910   11.1150   -1.4620 C   0  0  0  0  0  0  0  0  0  0  0  0
    3.8190   10.8520   -2.0910 C   0  0  0  0  0  0  0  0  0  0  0  0
    4.2000   11.2620   -3.3150 C   0  0  0  0  0  0  0  0  0  0  0  0
    3.2170   11.9880   -4.2430 C   0  0  1  0  0  0  0  0  0  0  0  0
    3.3010   11.3760   -5.6660 C   0  0  0  0  0  0  0  0  0  0  0  0
    4.7240   11.3650   -6.2160 C   0  0  0  0  0  0  0  0  0  0  0  0
    5.6590   10.5850   -5.2950 C   0  0  2  0  0  0  0  0  0  0  0  0
    5.2810    9.2050   -5.3170 O   0  0  0  0  0  0  0  0  0  0  0  0
    5.6520   11.1060   -3.8310 C   0  0  0  0  0  0  0  0  0  0  0  0
    6.3420   12.4910   -3.7680 C   0  0  0  0  0  0  0  0  0  0  0  0
    6.5250   10.1460   -2.9790 C   0  0  0  0  0  0  0  0  0  0  0  0
    1.7230   12.1050   -3.7160 C   0  0  1  0  0  0  0  0  0  0  0  0
    0.9160   10.8320   -4.1160 C   0  0  0  0  0  0  0  0  0  0  0  0
    1.0190   13.3190   -4.4300 C   0  0  0  0  0  0  0  0  0  0  0  0
    1.1740   14.7010   -3.7660 C   0  0  0  0  0  0  0  0  0  0  0  0
    0.8470   14.6310   -2.2720 C   0  0  2  0  0  0  0  0  0  0  0  0
   -0.6560   14.2140   -2.1300 C   0  0  0  0  0  0  0  0  0  0  0  0
    0.4880   18.8140   -2.7146 H   0  0  0  0  0  0  0  0  0  0  0  0
    1.0182   17.2831   -3.4904 H   0  0  0  0  0  0  0  0  0  0  0  0
   -0.7203   17.7348   -3.4904 H   0  0  0  0  0  0  0  0  0  0  0  0
   -0.9835   16.5867   -1.5971 H   0  0  0  0  0  0  0  0  0  0  0  0
   -0.9219   18.2915   -0.1149 H   0  0  0  0  0  0  0  0  0  0  0  0
    0.5898   17.4249    0.4383 H   0  0  0  0  0  0  0  0  0  0  0  0
    1.4929   19.1066   -1.5738 H   0  0  0  0  0  0  0  0  0  0  0  0
    0.2581   20.0960   -0.6887 H   0  0  0  0  0  0  0  0  0  0  0  0
    1.1020   19.5510    1.2126 H   0  0  0  0  0  0  0  0  0  0  0  0
    4.2152   17.0181   -0.0610 H   0  0  0  0  0  0  0  0  0  0  0  0
    2.9140   17.6017   -1.1532 H   0  0  0  0  0  0  0  0  0  0  0  0
    4.5172   18.4119   -1.1532 H   0  0  0  0  0  0  0  0  0  0  0  0
    3.2345   18.8532    2.6696 H   0  0  0  0  0  0  0  0  0  0  0  0
    4.4728   17.7688    1.9504 H   0  0  0  0  0  0  0  0  0  0  0  0
    4.7272   19.5470    1.9504 H   0  0  0  0  0  0  0  0  0  0  0  0
    1.9525   16.4629   -1.8233 H   0  0  0  0  0  0  0  0  0  0  0  0
    2.0065   15.9124    0.5290 H   0  0  0  0  0  0  0  0  0  0  0  0
    0.2630   15.5732    0.5687 H   0  0  0  0  0  0  0  0  0  0  0  0
    2.3373   13.6080    0.5581 H   0  0  0  0  0  0  0  0  0  0  0  0
    0.6446   13.2588    0.2164 H   0  0  0  0  0  0  0  0  0  0  0  0
    3.7841   14.2165   -0.6833 H   0  0  0  0  0  0  0  0  0  0  0  0
    3.9316   13.3237   -2.2351 H   0  0  0  0  0  0  0  0  0  0  0  0
    3.4262   15.0475   -2.2351 H   0  0  0  0  0  0  0  0  0  0  0  0
    0.6067   12.0034   -1.8546 H   0  0  0  0  0  0  0  0  0  0  0  0
    2.6629   11.4152   -0.4178 H   0  0  0  0  0  0  0  0  0  0  0  0
    1.9161   10.1826   -1.5633 H   0  0  0  0  0  0  0  0  0  0  0  0
    4.5481   10.2740   -1.5043 H   0  0  0  0  0  0  0  0  0  0  0  0
    3.5421   13.0385   -4.2684 H   0  0  0  0  0  0  0  0  0  0  0  0
    2.9302   10.3411   -5.6270 H   0  0  0  0  0  0  0  0  0  0  0  0
    2.6900   12.0006   -6.3343 H   0  0  0  0  0  0  0  0  0  0  0  0
    4.7221   10.8937   -7.2099 H   0  0  0  0  0  0  0  0  0  0  0  0
    5.0825   12.4028   -6.2830 H   0  0  0  0  0  0  0  0  0  0  0  0
    6.6835   10.7224   -5.6711 H   0  0  0  0  0  0  0  0  0  0  0  0
    5.8980    8.7220   -4.7420 H   0  0  0  0  0  0  0  0  0  0  0  0
    6.4866   12.7812   -2.7169 H   0  0  0  0  0  0  0  0  0  0  0  0
    7.3187   12.4373   -4.2712 H   0  0  0  0  0  0  0  0  0  0  0  0
    5.7109   13.2383   -4.2712 H   0  0  0  0  0  0  0  0  0  0  0  0
    6.3482   10.3404   -1.9108 H   0  0  0  0  0  0  0  0  0  0  0  0
    6.2582    9.1044   -3.2112 H   0  0  0  0  0  0  0  0  0  0  0  0
    7.5872   10.3129   -3.2112 H   0  0  0  0  0  0  0  0  0  0  0  0
    0.5838   10.3080   -3.2077 H   0  0  0  0  0  0  0  0  0  0  0  0
    0.0389   11.1259   -4.7112 H   0  0  0  0  0  0  0  0  0  0  0  0
    1.5560   10.1641   -4.7112 H   0  0  0  0  0  0  0  0  0  0  0  0
    1.4306   13.3907   -5.4476 H   0  0  0  0  0  0  0  0  0  0  0  0
   -0.0571   13.0961   -4.3825 H   0  0  0  0  0  0  0  0  0  0  0  0
    2.2108   15.0463   -3.8916 H   0  0  0  0  0  0  0  0  0  0  0  0
    0.4742   15.4011   -4.2458 H   0  0  0  0  0  0  0  0  0  0  0  0
   -0.9173   14.1415   -1.0639 H   0  0  0  0  0  0  0  0  0  0  0  0
   -1.2933   14.9693   -2.6132 H   0  0  0  0  0  0  0  0  0  0  0  0
   -0.8131   13.2384   -2.6132 H   0  0  0  0  0  0  0  0  0  0  0  0
  1  2  1  0
  2  3  1  0
  3  4  1  0
  4  5  1  0
  5  6  1  0
  6  7  1  0
  7  8  1  0
  7  9  1  0
  2 10  1  0
 10 11  1  0
 11 12  1  0
 12 13  1  0
 13 14  1  1
 13 15  1  0
 15 16  1  0
 16 17  1  0
 17 18  2  0
 18 19  1  0
 19 20  1  0
 20 21  1  0
 21 22  1  0
 22 23  1  0
 22 24  1  0
 24 25  1  0
 24 26  1  0
 19 27  1  0
 27 28  1  6
 27 29  1  0
 29 30  1  0
 30 31  1  0
 31 32  1  6
  7  5  1  0
 31 10  1  0
 31 13  1  0
 27 15  1  0
 24 18  1  0
  1 33  1  0
  1 34  1  0
  1 35  1  0
  2 36  1  6
  3 37  1  0
  3 38  1  0
  4 39  1  0
  4 40  1  0
  5 41  1  1
  8 42  1  0
  8 43  1  0
  8 44  1  0
  9 45  1  0
  9 46  1  0
  9 47  1  0
 10 48  1  6
 11 49  1  0
 11 50  1  0
 12 51  1  0
 12 52  1  0
 14 53  1  0
 14 54  1  0
 14 55  1  0
 15 56  1  1
 16 57  1  0
 16 58  1  0
 17 59  1  0
 19 60  1  6
 20 61  1  0
 20 62  1  0
 21 63  1  0
 21 64  1  0
 22 65  1  6
 23 66  1  0
 25 67  1  0
 25 68  1  0
 25 69  1  0
 26 70  1  0
 26 71  1  0
 26 72  1  0
 28 73  1  0
 28 74  1  0
 28 75  1  0
 29 76  1  0
 29 77  1  0
 30 78  1  0
 30 79  1  0
 32 80  1  0
 32 81  1  0
 32 82  1  0
M  END
>  <meeko>  (16) 
{"is_sidechain": [false], "intermolecular_energy": 2.731, "internal_energy": -0.839}

$$$$
EPH_relaxed_0001_pdb2pqr_Repair_200_r2_0001_out
     RDKit          3D

 82 86  0  0  0  0  0  0  0  0999 V2000
    0.8510   14.7280   -4.7710 C   0  0  0  0  0  0  0  0  0  0  0  0
    0.6000   14.1750   -3.3660 C   0  0  2  0  0  0  0  0  0  0  0  0
    1.8200   14.3640   -2.4410 C   0  0  0  0  0  0  0  0  0  0  0  0
    1.5920   15.3830   -1.3220 C   0  0  0  0  0  0  0  0  0  0  0  0
    1.1670   16.7150   -1.8630 C   0  0  2  0  0  0  0  0  0  0  0  0
    2.0570   17.2780   -2.8350 O   0  0  0  0  0  0  0  0  0  0  0  0
    1.9240   18.0040   -1.6030 C   0  0  0  0  0  0  0  0  0  0  0  0
    3.1680   18.0240   -0.7710 C   0  0  0  0  0  0  0  0  0  0  0  0
    1.1950   19.3030   -1.7440 C   0  0  0  0  0  0  0  0  0  0  0  0
    0.2310   12.6990   -3.4460 C   0  0  1  0  0  0  0  0  0  0  0  0
    1.4530   11.7930   -3.7550 C   0  0  0  0  0  0  0  0  0  0  0  0
    1.2340   10.4670   -2.9830 C   0  0  0  0  0  0  0  0  0  0  0  0
   -0.2440   10.5190   -2.5300 C   0  0  1  0  0  0  0  0  0  0  0  0
   -1.0640   10.0730   -3.7810 C   0  0  0  0  0  0  0  0  0  0  0  0
   -0.6100    9.6710   -1.2680 C   0  0  2  0  0  0  0  0  0  0  0  0
   -0.4090    8.1540   -1.4210 C   0  0  0  0  0  0  0  0  0  0  0  0
   -1.5960    7.4010   -1.9240 C   0  0  0  0  0  0  0  0  0  0  0  0
   -2.8570    7.8700   -1.9710 C   0  0  0  0  0  0  0  0  0  0  0  0
   -3.2070    9.2480   -1.3960 C   0  0  1  0  0  0  0  0  0  0  0  0
   -4.4880    9.1370   -0.5280 C   0  0  0  0  0  0  0  0  0  0  0  0
   -5.6540    8.5070   -1.2830 C   0  0  0  0  0  0  0  0  0  0  0  0
   -5.2870    7.1140   -1.7890 C   0  0  2  0  0  0  0  0  0  0  0  0
   -5.1090    6.2480   -0.6640 O   0  0  0  0  0  0  0  0  0  0  0  0
   -4.0060    7.0990   -2.6680 C   0  0  0  0  0  0  0  0  0  0  0  0
   -4.2980    7.7860   -4.0260 C   0  0  0  0  0  0  0  0  0  0  0  0
   -3.6680    5.6200   -2.9950 C   0  0  0  0  0  0  0  0  0  0  0  0
   -2.0270   10.0080   -0.6500 C   0  0  1  0  0  0  0  0  0  0  0  0
   -1.9760    9.5710    0.8460 C   0  0  0  0  0  0  0  0  0  0  0  0
   -2.3290   11.5530   -0.6510 C   0  0  0  0  0  0  0  0  0  0  0  0
   -1.8370   12.3560   -1.8700 C   0  0  0  0  0  0  0  0  0  0  0  0
   -0.3690   12.0460   -2.1750 C   0  0  2  0  0  0  0  0  0  0  0  0
    0.4830   12.5040   -0.9430 C   0  0  0  0  0  0  0  0  0  0  0  0
    1.3046   15.7273   -4.6961 H   0  0  0  0  0  0  0  0  0  0  0  0
    1.5322   14.0558   -5.3133 H   0  0  0  0  0  0  0  0  0  0  0  0
   -0.1034   14.7983   -5.3133 H   0  0  0  0  0  0  0  0  0  0  0  0
   -0.2354   14.7435   -2.9313 H   0  0  0  0  0  0  0  0  0  0  0  0
    2.0621   13.3936   -1.9830 H   0  0  0  0  0  0  0  0  0  0  0  0
    2.6396   14.7499   -3.0649 H   0  0  0  0  0  0  0  0  0  0  0  0
    0.8079   15.0047   -0.6497 H   0  0  0  0  0  0  0  0  0  0  0  0
    2.5414   15.5188   -0.7833 H   0  0  0  0  0  0  0  0  0  0  0  0
    0.1058   16.4474   -1.7526 H   0  0  0  0  0  0  0  0  0  0  0  0
    2.8963   18.0196    0.2949 H   0  0  0  0  0  0  0  0  0  0  0  0
    3.7754   17.1355   -0.9982 H   0  0  0  0  0  0  0  0  0  0  0  0
    3.7465   18.9316   -0.9982 H   0  0  0  0  0  0  0  0  0  0  0  0
    0.9685   19.7066   -0.7461 H   0  0  0  0  0  0  0  0  0  0  0  0
    1.8235   20.0183   -2.2948 H   0  0  0  0  0  0  0  0  0  0  0  0
    0.2570   19.1392   -2.2948 H   0  0  0  0  0  0  0  0  0  0  0  0
   -0.5275   12.7418   -4.2415 H   0  0  0  0  0  0  0  0  0  0  0  0
    1.5150   11.5963   -4.8355 H   0  0  0  0  0  0  0  0  0  0  0  0
    2.3915   12.2779   -3.4482 H   0  0  0  0  0  0  0  0  0  0  0  0
    1.4087    9.6019   -3.6396 H   0  0  0  0  0  0  0  0  0  0  0  0
    1.9266   10.3584   -2.1353 H   0  0  0  0  0  0  0  0  0  0  0  0
   -1.9868    9.5711   -3.4547 H   0  0  0  0  0  0  0  0  0  0  0  0
   -1.3207   10.9558   -4.3850 H   0  0  0  0  0  0  0  0  0  0  0  0
   -0.4624    9.3778   -4.3850 H   0  0  0  0  0  0  0  0  0  0  0  0
    0.1430    9.9989   -0.5363 H   0  0  0  0  0  0  0  0  0  0  0  0
    0.4205    7.9903   -2.1246 H   0  0  0  0  0  0  0  0  0  0  0  0
   -0.2111    7.7697   -0.4095 H   0  0  0  0  0  0  0  0  0  0  0  0
   -1.4258    6.3766   -2.2868 H   0  0  0  0  0  0  0  0  0  0  0  0
   -3.3987    9.8992   -2.2616 H   0  0  0  0  0  0  0  0  0  0  0  0
   -4.2638    8.5188    0.3538 H   0  0  0  0  0  0  0  0  0  0  0  0
   -4.7871   10.1564   -0.2427 H   0  0  0  0  0  0  0  0  0  0  0  0
   -6.5194    8.4287   -0.6085 H   0  0  0  0  0  0  0  0  0  0  0  0
   -5.8968    9.1421   -2.1477 H   0  0  0  0  0  0  0  0  0  0  0  0
   -6.1108    6.7682   -2.4307 H   0  0  0  0  0  0  0  0  0  0  0  0
   -4.9270    5.3560   -1.0060 H   0  0  0  0  0  0  0  0  0  0  0  0
   -4.7226    8.7850   -3.8477 H   0  0  0  0  0  0  0  0  0  0  0  0
   -3.3628    7.8817   -4.5971 H   0  0  0  0  0  0  0  0  0  0  0  0
   -5.0159    7.1790   -4.5971 H   0  0  0  0  0  0  0  0  0  0  0  0
   -3.5395    5.0576   -2.0584 H   0  0  0  0  0  0  0  0  0  0  0  0
   -4.4881    5.1770   -3.5792 H   0  0  0  0  0  0  0  0  0  0  0  0
   -2.7369    5.5772   -3.5792 H   0  0  0  0  0  0  0  0  0  0  0  0
   -2.0793   10.4565    1.4904 H   0  0  0  0  0  0  0  0  0  0  0  0
   -2.7984    8.8700    1.0515 H   0  0  0  0  0  0  0  0  0  0  0  0
   -1.0143    9.0782    1.0515 H   0  0  0  0  0  0  0  0  0  0  0  0
   -3.4199   11.6789   -0.5879 H   0  0  0  0  0  0  0  0  0  0  0  0
   -1.7681   11.9565    0.2049 H   0  0  0  0  0  0  0  0  0  0  0  0
   -2.4495   12.0930   -2.7450 H   0  0  0  0  0  0  0  0  0  0  0  0
   -1.9290   13.4285   -1.6435 H   0  0  0  0  0  0  0  0  0  0  0  0
   -0.0360   12.2250   -0.0142 H   0  0  0  0  0  0  0  0  0  0  0  0
    1.4669   12.0132   -0.9748 H   0  0  0  0  0  0  0  0  0  0  0  0
    0.6164   13.5954   -0.9748 H   0  0  0  0  0  0  0  0  0  0  0  0
  1  2  1  0
  2  3  1  0
  3  4  1  0
  4  5  1  0
  5  6  1  0
  6  7  1  0
  7  8  1  0
  7  9  1  0
  2 10  1  0
 10 11  1  0
 11 12  1  0
 12 13  1  0
 13 14  1  6
 13 15  1  0
 15 16  1  0
 16 17  1  0
 17 18  2  0
 18 19  1  0
 19 20  1  0
 20 21  1  0
 21 22  1  0
 22 23  1  0
 22 24  1  0
 24 25  1  0
 24 26  1  0
 19 27  1  0
 27 28  1  1
 27 29  1  0
 29 30  1  0
 30 31  1  0
 31 32  1  1
  7  5  1  0
 31 10  1  0
 31 13  1  0
 27 15  1  0
 24 18  1  0
  1 33  1  0
  1 34  1  0
  1 35  1  0
  2 36  1  1
  3 37  1  0
  3 38  1  0
  4 39  1  0
  4 40  1  0
  5 41  1  6
  8 42  1  0
  8 43  1  0
  8 44  1  0
  9 45  1  0
  9 46  1  0
  9 47  1  0
 10 48  1  6
 11 49  1  0
 11 50  1  0
 12 51  1  0
 12 52  1  0
 14 53  1  0
 14 54  1  0
 14 55  1  0
 15 56  1  1
 16 57  1  0
 16 58  1  0
 17 59  1  0
 19 60  1  6
 20 61  1  0
 20 62  1  0
 21 63  1  0
 21 64  1  0
 22 65  1  6
 23 66  1  0
 25 67  1  0
 25 68  1  0
 25 69  1  0
 26 70  1  0
 26 71  1  0
 26 72  1  0
 28 73  1  0
 28 74  1  0
 28 75  1  0
 29 76  1  0
 29 77  1  0
 30 78  1  0
 30 79  1  0
 32 80  1  0
 32 81  1  0
 32 82  1  0
M  END
>  <meeko>  (17) 
{"is_sidechain": [false], "intermolecular_energy": 2.731, "internal_energy": -0.839}

$$$$
EPH_relaxed_0001_pdb2pqr_Repair_200_r2_0001_out
     RDKit          3D

 82 86  0  0  0  0  0  0  0  0999 V2000
  -14.6870    6.4250   -0.5450 C   0  0  0  0  0  0  0  0  0  0  0  0
  -13.4000    6.9520    0.0950 C   0  0  2  0  0  0  0  0  0  0  0  0
  -13.6080    8.3170    0.7800 C   0  0  0  0  0  0  0  0  0  0  0  0
  -14.7540    9.1370    0.1820 C   0  0  0  0  0  0  0  0  0  0  0  0
  -14.2510   10.3550   -0.5330 C   0  0  2  0  0  0  0  0  0  0  0  0
  -15.2750   11.2580   -0.9710 O   0  0  0  0  0  0  0  0  0  0  0  0
  -14.5030   10.6250   -2.0050 C   0  0  0  0  0  0  0  0  0  0  0  0
  -15.2860    9.6700   -2.8500 C   0  0  0  0  0  0  0  0  0  0  0  0
  -13.5840   11.5580   -2.7290 C   0  0  0  0  0  0  0  0  0  0  0  0
  -12.3020    7.0580   -0.9570 C   0  0  1  0  0  0  0  0  0  0  0  0
  -12.5720    8.1860   -1.9890 C   0  0  0  0  0  0  0  0  0  0  0  0
  -11.1930    8.7830   -2.3700 C   0  0  0  0  0  0  0  0  0  0  0  0
  -10.1630    7.7740   -1.8090 C   0  0  1  0  0  0  0  0  0  0  0  0
  -10.1020    6.6310   -2.8700 C   0  0  0  0  0  0  0  0  0  0  0  0
   -8.7410    8.3420   -1.4910 C   0  0  2  0  0  0  0  0  0  0  0  0
   -7.9730    8.8940   -2.7050 C   0  0  0  0  0  0  0  0  0  0  0  0
   -7.1100    7.9050   -3.4170 C   0  0  0  0  0  0  0  0  0  0  0  0
   -6.7350    6.7050   -2.9350 C   0  0  0  0  0  0  0  0  0  0  0  0
   -7.1050    6.2780   -1.5090 C   0  0  1  0  0  0  0  0  0  0  0  0
   -5.8570    5.6810   -0.8070 C   0  0  0  0  0  0  0  0  0  0  0  0
   -5.2200    4.5500   -1.6090 C   0  0  0  0  0  0  0  0  0  0  0  0
   -4.8130    5.0290   -3.0000 C   0  0  2  0  0  0  0  0  0  0  0  0
   -3.7550    5.9830   -2.8670 O   0  0  0  0  0  0  0  0  0  0  0  0
   -5.9880    5.6590   -3.7990 C   0  0  0  0  0  0  0  0  0  0  0  0
   -6.9940    4.5540   -4.2030 C   0  0  0  0  0  0  0  0  0  0  0  0
   -5.4130    6.2280   -5.1240 C   0  0  0  0  0  0  0  0  0  0  0  0
   -7.8360    7.3760   -0.6240 C   0  0  1  0  0  0  0  0  0  0  0  0
   -6.7800    8.2760    0.0880 C   0  0  0  0  0  0  0  0  0  0  0  0
   -8.6500    6.6590    0.5180 C   0  0  0  0  0  0  0  0  0  0  0  0
  -10.0900    6.2280    0.1790 C   0  0  0  0  0  0  0  0  0  0  0  0
  -10.8700    7.3800   -0.4620 C   0  0  2  0  0  0  0  0  0  0  0  0
  -10.9670    8.5360    0.5910 C   0  0  0  0  0  0  0  0  0  0  0  0
  -15.3965    6.1345    0.2438 H   0  0  0  0  0  0  0  0  0  0  0  0
  -15.1350    7.2121   -1.1693 H   0  0  0  0  0  0  0  0  0  0  0  0
  -14.4543    5.5498   -1.1693 H   0  0  0  0  0  0  0  0  0  0  0  0
  -13.1005    6.2352    0.8738 H   0  0  0  0  0  0  0  0  0  0  0  0
  -13.8245    8.1422    1.8442 H   0  0  0  0  0  0  0  0  0  0  0  0
  -12.6852    8.8964    0.6292 H   0  0  0  0  0  0  0  0  0  0  0  0
  -15.3077    8.5085   -0.5310 H   0  0  0  0  0  0  0  0  0  0  0  0
  -15.4048    9.4672    1.0050 H   0  0  0  0  0  0  0  0  0  0  0  0
  -13.3316   10.3586    0.0709 H   0  0  0  0  0  0  0  0  0  0  0  0
  -15.8492    8.9831   -2.2011 H   0  0  0  0  0  0  0  0  0  0  0  0
  -15.9867   10.2319   -3.4850 H   0  0  0  0  0  0  0  0  0  0  0  0
  -14.5977    9.0930   -3.4850 H   0  0  0  0  0  0  0  0  0  0  0  0
  -13.0067   12.1441   -1.9988 H   0  0  0  0  0  0  0  0  0  0  0  0
  -12.8950   10.9776   -3.3602 H   0  0  0  0  0  0  0  0  0  0  0  0
  -14.1747   12.2381   -3.3602 H   0  0  0  0  0  0  0  0  0  0  0  0
  -12.3377    6.0368   -1.3643 H   0  0  0  0  0  0  0  0  0  0  0  0
  -13.0655    7.7730   -2.8811 H   0  0  0  0  0  0  0  0  0  0  0  0
  -13.2334    8.9572   -1.5672 H   0  0  0  0  0  0  0  0  0  0  0  0
  -11.0960    8.8704   -3.4622 H   0  0  0  0  0  0  0  0  0  0  0  0
  -11.0497    9.7951   -1.9637 H   0  0  0  0  0  0  0  0  0  0  0  0
  -10.0501    5.6585   -2.3587 H   0  0  0  0  0  0  0  0  0  0  0  0
  -11.0033    6.6666   -3.4996 H   0  0  0  0  0  0  0  0  0  0  0  0
   -9.2096    6.7623   -3.4996 H   0  0  0  0  0  0  0  0  0  0  0  0
   -8.9703    9.2141   -0.8610 H   0  0  0  0  0  0  0  0  0  0  0  0
   -8.7086    9.2832   -3.4243 H   0  0  0  0  0  0  0  0  0  0  0  0
   -7.2928    9.6634   -2.3108 H   0  0  0  0  0  0  0  0  0  0  0  0
   -6.7504    8.1799   -4.4196 H   0  0  0  0  0  0  0  0  0  0  0  0
   -7.8797    5.5042   -1.6148 H   0  0  0  0  0  0  0  0  0  0  0  0
   -5.1129    6.4797   -0.6713 H   0  0  0  0  0  0  0  0  0  0  0  0
   -6.1835    5.2641    0.1571 H   0  0  0  0  0  0  0  0  0  0  0  0
   -4.3272    4.1899   -1.0768 H   0  0  0  0  0  0  0  0  0  0  0  0
   -5.9558    3.7397   -1.7183 H   0  0  0  0  0  0  0  0  0  0  0  0
   -4.4839    4.1475   -3.5698 H   0  0  0  0  0  0  0  0  0  0  0  0
   -3.7880    6.5690   -3.6430 H   0  0  0  0  0  0  0  0  0  0  0  0
   -7.4145    4.0921   -3.2975 H   0  0  0  0  0  0  0  0  0  0  0  0
   -7.8053    4.9970   -4.7993 H   0  0  0  0  0  0  0  0  0  0  0  0
   -6.4770    3.7877   -4.7993 H   0  0  0  0  0  0  0  0  0  0  0  0
   -4.6480    6.9850   -4.8965 H   0  0  0  0  0  0  0  0  0  0  0  0
   -4.9600    5.4127   -5.7072 H   0  0  0  0  0  0  0  0  0  0  0  0
   -6.2235    6.6895   -5.7072 H   0  0  0  0  0  0  0  0  0  0  0  0
   -6.8921    8.1805    1.1781 H   0  0  0  0  0  0  0  0  0  0  0  0
   -5.7690    7.9576   -0.2059 H   0  0  0  0  0  0  0  0  0  0  0  0
   -6.9341    9.3247   -0.2059 H   0  0  0  0  0  0  0  0  0  0  0  0
   -8.0920    5.7565    0.8081 H   0  0  0  0  0  0  0  0  0  0  0  0
   -8.7545    7.4118    1.3132 H   0  0  0  0  0  0  0  0  0  0  0  0
  -10.0566    5.3816   -0.5227 H   0  0  0  0  0  0  0  0  0  0  0  0
  -10.5974    5.9360    1.1103 H   0  0  0  0  0  0  0  0  0  0  0  0
  -10.9314    8.1119    1.6054 H   0  0  0  0  0  0  0  0  0  0  0  0
  -10.1238    9.2289    0.4535 H   0  0  0  0  0  0  0  0  0  0  0  0
  -11.9138    9.0787    0.4535 H   0  0  0  0  0  0  0  0  0  0  0  0
  1  2  1  0
  2  3  1  0
  3  4  1  0
  4  5  1  0
  5  6  1  0
  6  7  1  0
  7  8  1  0
  7  9  1  0
  2 10  1  0
 10 11  1  0
 11 12  1  0
 12 13  1  0
 13 14  1  6
 13 15  1  0
 15 16  1  0
 16 17  1  0
 17 18  2  0
 18 19  1  0
 19 20  1  0
 20 21  1  0
 21 22  1  0
 22 23  1  0
 22 24  1  0
 24 25  1  0
 24 26  1  0
 19 27  1  0
 27 28  1  1
 27 29  1  0
 29 30  1  0
 30 31  1  0
 31 32  1  1
  7  5  1  0
 31 10  1  0
 31 13  1  0
 27 15  1  0
 24 18  1  0
  1 33  1  0
  1 34  1  0
  1 35  1  0
  2 36  1  1
  3 37  1  0
  3 38  1  0
  4 39  1  0
  4 40  1  0
  5 41  1  1
  8 42  1  0
  8 43  1  0
  8 44  1  0
  9 45  1  0
  9 46  1  0
  9 47  1  0
 10 48  1  6
 11 49  1  0
 11 50  1  0
 12 51  1  0
 12 52  1  0
 14 53  1  0
 14 54  1  0
 14 55  1  0
 15 56  1  1
 16 57  1  0
 16 58  1  0
 17 59  1  0
 19 60  1  6
 20 61  1  0
 20 62  1  0
 21 63  1  0
 21 64  1  0
 22 65  1  6
 23 66  1  0
 25 67  1  0
 25 68  1  0
 25 69  1  0
 26 70  1  0
 26 71  1  0
 26 72  1  0
 28 73  1  0
 28 74  1  0
 28 75  1  0
 29 76  1  0
 29 77  1  0
 30 78  1  0
 30 79  1  0
 32 80  1  0
 32 81  1  0
 32 82  1  0
M  END
>  <meeko>  (18) 
{"is_sidechain": [false], "intermolecular_energy": 2.731, "internal_energy": -0.839}

$$$$
EPH_relaxed_0001_pdb2pqr_Repair_200_r2_0001_out
     RDKit          3D

 82 86  0  0  0  0  0  0  0  0999 V2000
   -6.4330    7.9940   -2.9330 C   0  0  0  0  0  0  0  0  0  0  0  0
   -5.6110    7.6560   -1.6860 C   0  0  2  0  0  0  0  0  0  0  0  0
   -6.5040    7.2960   -0.4810 C   0  0  0  0  0  0  0  0  0  0  0  0
   -7.9300    6.8960   -0.8700 C   0  0  0  0  0  0  0  0  0  0  0  0
   -8.8890    7.0920    0.2640 C   0  0  2  0  0  0  0  0  0  0  0  0
  -10.0130    6.2010    0.2590 O   0  0  0  0  0  0  0  0  0  0  0  0
  -10.3090    7.5950    0.0810 C   0  0  0  0  0  0  0  0  0  0  0  0
  -10.8480    7.9350   -1.2730 C   0  0  0  0  0  0  0  0  0  0  0  0
  -11.0040    8.2180    1.2520 C   0  0  0  0  0  0  0  0  0  0  0  0
   -4.7030    8.8270   -1.3290 C   0  0  1  0  0  0  0  0  0  0  0  0
   -5.1120    9.5180   -0.0010 C   0  0  0  0  0  0  0  0  0  0  0  0
   -3.8010    9.9810    0.6850 C   0  0  0  0  0  0  0  0  0  0  0  0
   -2.7180    9.8440   -0.4100 C   0  0  1  0  0  0  0  0  0  0  0  0
   -2.8650   11.1300   -1.2830 C   0  0  0  0  0  0  0  0  0  0  0  0
   -1.2500    9.6510    0.0900 C   0  0  2  0  0  0  0  0  0  0  0  0
   -0.6810   10.8210    0.9120 C   0  0  0  0  0  0  0  0  0  0  0  0
    0.0240   11.8720    0.1210 C   0  0  0  0  0  0  0  0  0  0  0  0
    0.4440   11.7440   -1.1510 C   0  0  0  0  0  0  0  0  0  0  0  0
    0.3070   10.4090   -1.8950 C   0  0  1  0  0  0  0  0  0  0  0  0
    1.6400   10.0800   -2.6180 C   0  0  0  0  0  0  0  0  0  0  0  0
    2.1050   11.2120   -3.5300 C   0  0  0  0  0  0  0  0  0  0  0  0
    2.2860   12.5070   -2.7430 C   0  0  2  0  0  0  0  0  0  0  0  0
    3.3750   12.3440   -1.8300 O   0  0  0  0  0  0  0  0  0  0  0  0
    1.0100   12.9340   -1.9640 C   0  0  0  0  0  0  0  0  0  0  0  0
   -0.0780   13.4010   -2.9630 C   0  0  0  0  0  0  0  0  0  0  0  0
    1.3690   14.1740   -1.1030 C   0  0  0  0  0  0  0  0  0  0  0  0
   -0.2370    9.1890   -1.0350 C   0  0  1  0  0  0  0  0  0  0  0  0
    0.9460    8.4810   -0.3060 C   0  0  0  0  0  0  0  0  0  0  0  0
   -0.8660    8.1180   -2.0030 C   0  0  0  0  0  0  0  0  0  0  0  0
   -2.3530    8.2970   -2.3650 C   0  0  0  0  0  0  0  0  0  0  0  0
   -3.2000    8.5200   -1.1090 C   0  0  2  0  0  0  0  0  0  0  0  0
   -3.0900    7.2340   -0.2220 C   0  0  0  0  0  0  0  0  0  0  0  0
   -7.4109    8.3961   -2.6297 H   0  0  0  0  0  0  0  0  0  0  0  0
   -5.8977    8.7450   -3.5326 H   0  0  0  0  0  0  0  0  0  0  0  0
   -6.5808    7.0837   -3.5326 H   0  0  0  0  0  0  0  0  0  0  0  0
   -5.0018    6.7709   -1.9216 H   0  0  0  0  0  0  0  0  0  0  0  0
   -6.0412    6.4544    0.0552 H   0  0  0  0  0  0  0  0  0  0  0  0
   -6.5819    8.1987    0.1427 H   0  0  0  0  0  0  0  0  0  0  0  0
   -8.2537    7.5129   -1.7213 H   0  0  0  0  0  0  0  0  0  0  0  0
   -7.9265    5.8286   -1.1356 H   0  0  0  0  0  0  0  0  0  0  0  0
   -8.0733    7.4099    0.9300 H   0  0  0  0  0  0  0  0  0  0  0  0
  -11.7737    8.5189   -1.1631 H   0  0  0  0  0  0  0  0  0  0  0  0
  -10.1041    8.5276   -1.8256 H   0  0  0  0  0  0  0  0  0  0  0  0
  -11.0624    7.0084   -1.8256 H   0  0  0  0  0  0  0  0  0  0  0  0
  -10.5703    7.8292    2.1851 H   0  0  0  0  0  0  0  0  0  0  0  0
  -10.8766    9.3100    1.2155 H   0  0  0  0  0  0  0  0  0  0  0  0
  -12.0756    7.9724    1.2155 H   0  0  0  0  0  0  0  0  0  0  0  0
   -4.8336    9.4427   -2.2311 H   0  0  0  0  0  0  0  0  0  0  0  0
   -5.7575   10.3843   -0.2080 H   0  0  0  0  0  0  0  0  0  0  0  0
   -5.6740    8.8284    0.6461 H   0  0  0  0  0  0  0  0  0  0  0  0
   -3.8855   11.0257    1.0190 H   0  0  0  0  0  0  0  0  0  0  0  0
   -3.5664    9.3865    1.5803 H   0  0  0  0  0  0  0  0  0  0  0  0
   -2.9654   12.0082   -0.6282 H   0  0  0  0  0  0  0  0  0  0  0  0
   -1.9743   11.2459   -1.9179 H   0  0  0  0  0  0  0  0  0  0  0  0
   -3.7589   11.0419   -1.9179 H   0  0  0  0  0  0  0  0  0  0  0  0
   -1.3498    8.8118    0.7941 H   0  0  0  0  0  0  0  0  0  0  0  0
   -1.5157   11.2995    1.4452 H   0  0  0  0  0  0  0  0  0  0  0  0
    0.0757   10.3840    1.5802 H   0  0  0  0  0  0  0  0  0  0  0  0
    0.2167   12.8330    0.6203 H   0  0  0  0  0  0  0  0  0  0  0  0
   -0.4936   10.5542   -2.6353 H   0  0  0  0  0  0  0  0  0  0  0  0
    2.4161    9.8959   -1.8605 H   0  0  0  0  0  0  0  0  0  0  0  0
    1.4695    9.1932   -3.2462 H   0  0  0  0  0  0  0  0  0  0  0  0
    3.0646   10.9329   -3.9896 H   0  0  0  0  0  0  0  0  0  0  0  0
    1.3409   11.3755   -4.3042 H   0  0  0  0  0  0  0  0  0  0  0  0
    2.4931   13.3074   -3.4686 H   0  0  0  0  0  0  0  0  0  0  0  0
    3.4780   13.1790   -1.3430 H   0  0  0  0  0  0  0  0  0  0  0  0
   -0.9501   13.7753   -2.4068 H   0  0  0  0  0  0  0  0  0  0  0  0
    0.3260   14.2050   -3.5958 H   0  0  0  0  0  0  0  0  0  0  0  0
   -0.3825   12.5543   -3.5958 H   0  0  0  0  0  0  0  0  0  0  0  0
    1.2938   13.9143   -0.0368 H   0  0  0  0  0  0  0  0  0  0  0  0
    2.3966   14.4936   -1.3309 H   0  0  0  0  0  0  0  0  0  0  0  0
    0.6711   14.9932   -1.3309 H   0  0  0  0  0  0  0  0  0  0  0  0
    0.8082    8.5635    0.7822 H   0  0  0  0  0  0  0  0  0  0  0  0
    0.9709    7.4194   -0.5930 H   0  0  0  0  0  0  0  0  0  0  0  0
    1.8934    8.9607   -0.5930 H   0  0  0  0  0  0  0  0  0  0  0  0
   -0.2906    8.1379   -2.9403 H   0  0  0  0  0  0  0  0  0  0  0  0
   -0.8164    7.1674   -1.4517 H   0  0  0  0  0  0  0  0  0  0  0  0
   -2.4593    9.1669   -3.0298 H   0  0  0  0  0  0  0  0  0  0  0  0
   -2.7041    7.3834   -2.8671 H   0  0  0  0  0  0  0  0  0  0  0  0
   -3.1143    7.5182    0.8404 H   0  0  0  0  0  0  0  0  0  0  0  0
   -3.9341    6.5637   -0.4417 H   0  0  0  0  0  0  0  0  0  0  0  0
   -2.1443    6.7168   -0.4417 H   0  0  0  0  0  0  0  0  0  0  0  0
  1  2  1  0
  2  3  1  0
  3  4  1  0
  4  5  1  0
  5  6  1  0
  6  7  1  0
  7  8  1  0
  7  9  1  0
  2 10  1  0
 10 11  1  0
 11 12  1  0
 12 13  1  0
 13 14  1  6
 13 15  1  0
 15 16  1  0
 16 17  1  0
 17 18  2  0
 18 19  1  0
 19 20  1  0
 20 21  1  0
 21 22  1  0
 22 23  1  0
 22 24  1  0
 24 25  1  0
 24 26  1  0
 19 27  1  0
 27 28  1  1
 27 29  1  0
 29 30  1  0
 30 31  1  0
 31 32  1  1
  7  5  1  0
 31 10  1  0
 31 13  1  0
 27 15  1  0
 24 18  1  0
  1 33  1  0
  1 34  1  0
  1 35  1  0
  2 36  1  6
  3 37  1  0
  3 38  1  0
  4 39  1  0
  4 40  1  0
  5 41  1  1
  8 42  1  0
  8 43  1  0
  8 44  1  0
  9 45  1  0
  9 46  1  0
  9 47  1  0
 10 48  1  6
 11 49  1  0
 11 50  1  0
 12 51  1  0
 12 52  1  0
 14 53  1  0
 14 54  1  0
 14 55  1  0
 15 56  1  1
 16 57  1  0
 16 58  1  0
 17 59  1  0
 19 60  1  6
 20 61  1  0
 20 62  1  0
 21 63  1  0
 21 64  1  0
 22 65  1  6
 23 66  1  0
 25 67  1  0
 25 68  1  0
 25 69  1  0
 26 70  1  0
 26 71  1  0
 26 72  1  0
 28 73  1  0
 28 74  1  0
 28 75  1  0
 29 76  1  0
 29 77  1  0
 30 78  1  0
 30 79  1  0
 32 80  1  0
 32 81  1  0
 32 82  1  0
M  END
>  <meeko>  (19) 
{"is_sidechain": [false], "intermolecular_energy": 2.731, "internal_energy": -0.839}

$$$$
EPH_relaxed_0001_pdb2pqr_Repair_200_r2_0001_out
     RDKit          3D

 82 86  0  0  0  0  0  0  0  0999 V2000
    0.5530   16.3810   -6.4000 C   0  0  0  0  0  0  0  0  0  0  0  0
    0.2860   15.9920   -4.9430 C   0  0  2  0  0  0  0  0  0  0  0  0
    1.2240   16.7280   -3.9650 C   0  0  0  0  0  0  0  0  0  0  0  0
    0.4880   17.6170   -2.9590 C   0  0  0  0  0  0  0  0  0  0  0  0
    1.4430   18.4080   -2.1170 C   0  0  2  0  0  0  0  0  0  0  0  0
    1.7740   17.8050   -0.8590 O   0  0  0  0  0  0  0  0  0  0  0  0
    1.0600   19.0510   -0.7970 C   0  0  0  0  0  0  0  0  0  0  0  0
   -0.3250   18.9300   -0.2430 C   0  0  0  0  0  0  0  0  0  0  0  0
    1.8840   20.1930   -0.2910 C   0  0  0  0  0  0  0  0  0  0  0  0
    0.4330   14.4850   -4.7720 C   0  0  1  0  0  0  0  0  0  0  0  0
    1.5210   13.8810   -5.7000 C   0  0  0  0  0  0  0  0  0  0  0  0
    2.1880   12.7240   -4.9140 C   0  0  0  0  0  0  0  0  0  0  0  0
    1.2520   12.4830   -3.7060 C   0  0  1  0  0  0  0  0  0  0  0  0
    0.0920   11.6020   -4.2670 C   0  0  0  0  0  0  0  0  0  0  0  0
    1.9080   11.8370   -2.4420 C   0  0  2  0  0  0  0  0  0  0  0  0
    2.4770   10.4230   -2.6520 C   0  0  0  0  0  0  0  0  0  0  0  0
    1.5240    9.3060   -2.3820 C   0  0  0  0  0  0  0  0  0  0  0  0
    0.3580    9.4150   -1.7180 C   0  0  0  0  0  0  0  0  0  0  0  0
   -0.0590   10.7430   -1.0730 C   0  0  1  0  0  0  0  0  0  0  0  0
   -0.5680   10.4810    0.3690 C   0  0  0  0  0  0  0  0  0  0  0  0
   -1.6770    9.4350    0.4170 C   0  0  0  0  0  0  0  0  0  0  0  0
   -1.2060    8.1120   -0.1800 C   0  0  2  0  0  0  0  0  0  0  0  0
   -0.1900    7.5620    0.6640 O   0  0  0  0  0  0  0  0  0  0  0  0
   -0.6610    8.2530   -1.6290 C   0  0  0  0  0  0  0  0  0  0  0  0
   -1.8310    8.5580   -2.5970 C   0  0  0  0  0  0  0  0  0  0  0  0
   -0.0890    6.8760   -2.0610 C   0  0  0  0  0  0  0  0  0  0  0  0
    1.0140   11.9130   -1.1380 C   0  0  1  0  0  0  0  0  0  0  0  0
    1.9880   11.8100    0.0760 C   0  0  0  0  0  0  0  0  0  0  0  0
    0.2760   13.2970   -0.9980 C   0  0  0  0  0  0  0  0  0  0  0  0
   -0.2440   13.9410   -2.2980 C   0  0  0  0  0  0  0  0  0  0  0  0
    0.8470   13.9650   -3.3730 C   0  0  2  0  0  0  0  0  0  0  0  0
    2.0180   14.8620   -2.8460 C   0  0  0  0  0  0  0  0  0  0  0  0
    1.1753   17.2876   -6.4293 H   0  0  0  0  0  0  0  0  0  0  0  0
    1.0783   15.5591   -6.9086 H   0  0  0  0  0  0  0  0  0  0  0  0
   -0.4027   16.5757   -6.9086 H   0  0  0  0  0  0  0  0  0  0  0  0
   -0.7441   16.2940   -4.7029 H   0  0  0  0  0  0  0  0  0  0  0  0
    1.8025   15.9771   -3.4069 H   0  0  0  0  0  0  0  0  0  0  0  0
    1.8650   17.3874   -4.5686 H   0  0  0  0  0  0  0  0  0  0  0  0
   -0.1640   18.3125   -3.5078 H   0  0  0  0  0  0  0  0  0  0  0  0
   -0.1002   16.9681   -2.2934 H   0  0  0  0  0  0  0  0  0  0  0  0
    1.9413   18.8048   -3.0138 H   0  0  0  0  0  0  0  0  0  0  0  0
   -0.2819   18.9338    0.8561 H   0  0  0  0  0  0  0  0  0  0  0  0
   -0.9337   19.7784   -0.5890 H   0  0  0  0  0  0  0  0  0  0  0  0
   -0.7774   17.9889   -0.5890 H   0  0  0  0  0  0  0  0  0  0  0  0
    1.8807   20.1884    0.8090 H   0  0  0  0  0  0  0  0  0  0  0  0
    2.9169   20.0895   -0.6550 H   0  0  0  0  0  0  0  0  0  0  0  0
    1.4602   21.1406   -0.6550 H   0  0  0  0  0  0  0  0  0  0  0  0
   -0.5968   14.1729   -5.0003 H   0  0  0  0  0  0  0  0  0  0  0  0
    1.0611   13.4965   -6.6223 H   0  0  0  0  0  0  0  0  0  0  0  0
    2.2618   14.6418   -5.9868 H   0  0  0  0  0  0  0  0  0  0  0  0
    2.2579   11.8205   -5.5375 H   0  0  0  0  0  0  0  0  0  0  0  0
    3.2150   12.9676   -4.6042 H   0  0  0  0  0  0  0  0  0  0  0  0
   -0.4773   11.1696   -3.4310 H   0  0  0  0  0  0  0  0  0  0  0  0
   -0.5753   12.2230   -4.8827 H   0  0  0  0  0  0  0  0  0  0  0  0
    0.5111   10.7925   -4.8827 H   0  0  0  0  0  0  0  0  0  0  0  0
    2.7792   12.4862   -2.2705 H   0  0  0  0  0  0  0  0  0  0  0  0
    2.8085   10.3418   -3.6977 H   0  0  0  0  0  0  0  0  0  0  0  0
    3.2920   10.3112   -1.9217 H   0  0  0  0  0  0  0  0  0  0  0  0
    1.7979    8.3090   -2.7576 H   0  0  0  0  0  0  0  0  0  0  0  0
   -0.8781   11.1375   -1.6923 H   0  0  0  0  0  0  0  0  0  0  0  0
    0.2750   10.1295    0.9820 H   0  0  0  0  0  0  0  0  0  0  0  0
   -0.9824   11.4247    0.7533 H   0  0  0  0  0  0  0  0  0  0  0  0
   -1.9731    9.2723    1.4638 H   0  0  0  0  0  0  0  0  0  0  0  0
   -2.5306    9.8015   -0.1720 H   0  0  0  0  0  0  0  0  0  0  0  0
   -2.0796    7.4460   -0.2369 H   0  0  0  0  0  0  0  0  0  0  0  0
   -0.0720    8.1670    1.4160 H   0  0  0  0  0  0  0  0  0  0  0  0
   -2.7352    8.7937   -2.0166 H   0  0  0  0  0  0  0  0  0  0  0  0
   -1.5678    9.4176   -3.2310 H   0  0  0  0  0  0  0  0  0  0  0  0
   -2.0209    7.6794   -3.2310 H   0  0  0  0  0  0  0  0  0  0  0  0
    0.1568    6.2842   -1.1669 H   0  0  0  0  0  0  0  0  0  0  0  0
   -0.8387    6.3395   -2.6611 H   0  0  0  0  0  0  0  0  0  0  0  0
    0.8202    7.0286   -2.6611 H   0  0  0  0  0  0  0  0  0  0  0  0
    1.4143   11.8707    1.0126 H   0  0  0  0  0  0  0  0  0  0  0  0
    2.5238   10.8502    0.0358 H   0  0  0  0  0  0  0  0  0  0  0  0
    2.7127   12.6365    0.0358 H   0  0  0  0  0  0  0  0  0  0  0  0
   -0.5867   13.1484   -0.3319 H   0  0  0  0  0  0  0  0  0  0  0  0
    1.0380   13.9926   -0.6166 H   0  0  0  0  0  0  0  0  0  0  0  0
   -1.1018   13.3607   -2.6688 H   0  0  0  0  0  0  0  0  0  0  0  0
   -0.5446   14.9765   -2.0804 H   0  0  0  0  0  0  0  0  0  0  0  0
    2.0151   14.8598   -1.7460 H   0  0  0  0  0  0  0  0  0  0  0  0
    2.9768   14.4651   -3.2110 H   0  0  0  0  0  0  0  0  0  0  0  0
    1.8844   15.8911   -3.2110 H   0  0  0  0  0  0  0  0  0  0  0  0
  1  2  1  0
  2  3  1  0
  3  4  1  0
  4  5  1  0
  5  6  1  0
  6  7  1  0
  7  8  1  0
  7  9  1  0
  2 10  1  0
 10 11  1  0
 11 12  1  0
 12 13  1  0
 13 14  1  6
 13 15  1  0
 15 16  1  0
 16 17  1  0
 17 18  2  0
 18 19  1  0
 19 20  1  0
 20 21  1  0
 21 22  1  0
 22 23  1  0
 22 24  1  0
 24 25  1  0
 24 26  1  0
 19 27  1  0
 27 28  1  1
 27 29  1  0
 29 30  1  0
 30 31  1  0
 31 32  1  1
  7  5  1  0
 31 10  1  0
 31 13  1  0
 27 15  1  0
 24 18  1  0
  1 33  1  0
  1 34  1  0
  1 35  1  0
  2 36  1  1
  3 37  1  0
  3 38  1  0
  4 39  1  0
  4 40  1  0
  5 41  1  6
  8 42  1  0
  8 43  1  0
  8 44  1  0
  9 45  1  0
  9 46  1  0
  9 47  1  0
 10 48  1  6
 11 49  1  0
 11 50  1  0
 12 51  1  0
 12 52  1  0
 14 53  1  0
 14 54  1  0
 14 55  1  0
 15 56  1  1
 16 57  1  0
 16 58  1  0
 17 59  1  0
 19 60  1  6
 20 61  1  0
 20 62  1  0
 21 63  1  0
 21 64  1  0
 22 65  1  6
 23 66  1  0
 25 67  1  0
 25 68  1  0
 25 69  1  0
 26 70  1  0
 26 71  1  0
 26 72  1  0
 28 73  1  0
 28 74  1  0
 28 75  1  0
 29 76  1  0
 29 77  1  0
 30 78  1  0
 30 79  1  0
 32 80  1  0
 32 81  1  0
 32 82  1  0
M  END
>  <meeko>  (20) 
{"is_sidechain": [false], "intermolecular_energy": 2.731, "internal_energy": -0.839}

$$$$
