EPH_relaxed_0001_pdb2pqr_Repair_222_r2_0001_out
     RDKit          3D

 82 86  0  0  0  0  0  0  0  0999 V2000
    2.2170   17.8940   -3.0570 C   0  0  0  0  0  0  0  0  0  0  0  0
    0.9330   17.5470   -2.2980 C   0  0  2  0  0  0  0  0  0  0  0  0
    1.1140   17.6560   -0.7710 C   0  0  0  0  0  0  0  0  0  0  0  0
    0.8210   19.0520   -0.2140 C   0  0  0  0  0  0  0  0  0  0  0  0
   -0.5710   19.1510    0.3310 C   0  0  2  0  0  0  0  0  0  0  0  0
   -1.5160   18.2610   -0.2770 O   0  0  0  0  0  0  0  0  0  0  0  0
   -1.7500   19.6640   -0.4750 C   0  0  0  0  0  0  0  0  0  0  0  0
   -1.5900   20.1140   -1.8930 C   0  0  0  0  0  0  0  0  0  0  0  0
   -2.9460   20.1860    0.2600 C   0  0  0  0  0  0  0  0  0  0  0  0
    0.4740   16.1420   -2.6690 C   0  0  1  0  0  0  0  0  0  0  0  0
    0.4960   15.8910   -4.2000 C   0  0  0  0  0  0  0  0  0  0  0  0
    0.8950   14.4070   -4.4040 C   0  0  0  0  0  0  0  0  0  0  0  0
    0.7640   13.7710   -3.0000 C   0  0  1  0  0  0  0  0  0  0  0  0
   -0.7590   13.4710   -2.8360 C   0  0  0  0  0  0  0  0  0  0  0  0
    1.6350   12.5010   -2.7330 C   0  0  2  0  0  0  0  0  0  0  0  0
    1.3150   11.2910   -3.6280 C   0  0  0  0  0  0  0  0  0  0  0  0
    0.2850   10.3540   -3.0890 C   0  0  0  0  0  0  0  0  0  0  0  0
   -0.1510   10.3190   -1.8160 C   0  0  0  0  0  0  0  0  0  0  0  0
    0.4740   11.2210   -0.7440 C   0  0  1  0  0  0  0  0  0  0  0  0
    0.7680   10.3850    0.5290 C   0  0  0  0  0  0  0  0  0  0  0  0
   -0.4630    9.6410    1.0380 C   0  0  0  0  0  0  0  0  0  0  0  0
   -1.0210    8.7110   -0.0370 C   0  0  2  0  0  0  0  0  0  0  0  0
   -0.0750    7.6660   -0.2780 O   0  0  0  0  0  0  0  0  0  0  0  0
   -1.3460    9.4410   -1.3700 C   0  0  0  0  0  0  0  0  0  0  0  0
   -2.5770   10.3590   -1.1740 C   0  0  0  0  0  0  0  0  0  0  0  0
   -1.7660    8.3680   -2.4110 C   0  0  0  0  0  0  0  0  0  0  0  0
    1.7250   12.0850   -1.2090 C   0  0  1  0  0  0  0  0  0  0  0  0
    3.0350   11.2540   -1.0500 C   0  0  0  0  0  0  0  0  0  0  0  0
    1.8710   13.3310   -0.2570 C   0  0  0  0  0  0  0  0  0  0  0  0
    1.0780   14.5950   -0.6400 C   0  0  0  0  0  0  0  0  0  0  0  0
    1.2980   14.9540   -2.1130 C   0  0  2  0  0  0  0  0  0  0  0  0
    2.8180   15.2830   -2.3040 C   0  0  0  0  0  0  0  0  0  0  0  0
    3.0206   18.1112   -2.3380 H   0  0  0  0  0  0  0  0  0  0  0  0
    2.5106   17.0430   -3.6891 H   0  0  0  0  0  0  0  0  0  0  0  0
    2.0420   18.7771   -3.6891 H   0  0  0  0  0  0  0  0  0  0  0  0
    0.1662   18.2786   -2.5925 H   0  0  0  0  0  0  0  0  0  0  0  0
    0.4327   16.9397   -0.2886 H   0  0  0  0  0  0  0  0  0  0  0  0
    2.1710   17.4399   -0.5566 H   0  0  0  0  0  0  0  0  0  0  0  0
    1.5360   19.2711    0.5927 H   0  0  0  0  0  0  0  0  0  0  0  0
    0.9194   19.7764   -1.0359 H   0  0  0  0  0  0  0  0  0  0  0  0
   -0.1878   19.4147    1.3278 H   0  0  0  0  0  0  0  0  0  0  0  0
   -1.2215   21.1503   -1.9095 H   0  0  0  0  0  0  0  0  0  0  0  0
   -0.8692   19.4604   -2.4060 H   0  0  0  0  0  0  0  0  0  0  0  0
   -2.5617   20.0621   -2.4060 H   0  0  0  0  0  0  0  0  0  0  0  0
   -2.7723   20.1102    1.3436 H   0  0  0  0  0  0  0  0  0  0  0  0
   -3.1128   21.2387   -0.0119 H   0  0  0  0  0  0  0  0  0  0  0  0
   -3.8313   19.5924   -0.0119 H   0  0  0  0  0  0  0  0  0  0  0  0
   -0.5277   16.1500   -2.2146 H   0  0  0  0  0  0  0  0  0  0  0  0
   -0.4995   16.0780   -4.6289 H   0  0  0  0  0  0  0  0  0  0  0  0
    1.2079   16.5639   -4.7004 H   0  0  0  0  0  0  0  0  0  0  0  0
    0.2160   13.9169   -5.1172 H   0  0  0  0  0  0  0  0  0  0  0  0
    1.9089   14.3007   -4.8171 H   0  0  0  0  0  0  0  0  0  0  0  0
   -1.0098   13.4216   -1.7661 H   0  0  0  0  0  0  0  0  0  0  0  0
   -1.3438   14.2712   -3.3132 H   0  0  0  0  0  0  0  0  0  0  0  0
   -0.9966   12.5088   -3.3132 H   0  0  0  0  0  0  0  0  0  0  0  0
    2.6391   12.8366   -3.0316 H   0  0  0  0  0  0  0  0  0  0  0  0
    0.9563   11.6699   -4.5964 H   0  0  0  0  0  0  0  0  0  0  0  0
    2.2467   10.7106   -3.6998 H   0  0  0  0  0  0  0  0  0  0  0  0
   -0.1548    9.6310   -3.7918 H   0  0  0  0  0  0  0  0  0  0  0  0
   -0.2777   11.9919   -0.5187 H   0  0  0  0  0  0  0  0  0  0  0  0
    1.5523    9.6501    0.2948 H   0  0  0  0  0  0  0  0  0  0  0  0
    1.0877   11.0808    1.3187 H   0  0  0  0  0  0  0  0  0  0  0  0
   -0.1848    9.0457    1.9202 H   0  0  0  0  0  0  0  0  0  0  0  0
   -1.2358   10.3785    1.3003 H   0  0  0  0  0  0  0  0  0  0  0  0
   -1.9726    8.3061    0.3380 H   0  0  0  0  0  0  0  0  0  0  0  0
   -0.3740    6.8790    0.2090 H   0  0  0  0  0  0  0  0  0  0  0  0
   -2.7633   10.4979   -0.0988 H   0  0  0  0  0  0  0  0  0  0  0  0
   -2.3843   11.3357   -1.6419 H   0  0  0  0  0  0  0  0  0  0  0  0
   -3.4581    9.8957   -1.6419 H   0  0  0  0  0  0  0  0  0  0  0  0
   -2.1186    7.4672   -1.8873 H   0  0  0  0  0  0  0  0  0  0  0  0
   -2.5748    8.7657   -3.0416 H   0  0  0  0  0  0  0  0  0  0  0  0
   -0.9021    8.1110   -3.0416 H   0  0  0  0  0  0  0  0  0  0  0  0
    3.2537   11.1153    0.0191 H   0  0  0  0  0  0  0  0  0  0  0  0
    2.9066   10.2719   -1.5285 H   0  0  0  0  0  0  0  0  0  0  0  0
    3.8688   11.7887   -1.5285 H   0  0  0  0  0  0  0  0  0  0  0  0
    1.5421   13.0233    0.7466 H   0  0  0  0  0  0  0  0  0  0  0  0
    2.9292   13.6234   -0.3261 H   0  0  0  0  0  0  0  0  0  0  0  0
    0.0066   14.4131   -0.4700 H   0  0  0  0  0  0  0  0  0  0  0  0
    1.4295   15.4317   -0.0184 H   0  0  0  0  0  0  0  0  0  0  0  0
    3.2973   15.3867   -1.3193 H   0  0  0  0  0  0  0  0  0  0  0  0
    3.3019   14.4688   -2.8634 H   0  0  0  0  0  0  0  0  0  0  0  0
    2.9219   16.2244   -2.8634 H   0  0  0  0  0  0  0  0  0  0  0  0
  1  2  1  0
  2  3  1  0
  3  4  1  0
  4  5  1  0
  5  6  1  0
  6  7  1  0
  7  8  1  0
  7  9  1  0
  2 10  1  0
 10 11  1  0
 11 12  1  0
 12 13  1  0
 13 14  1  1
 13 15  1  0
 15 16  1  0
 16 17  1  0
 17 18  2  0
 18 19  1  0
 19 20  1  0
 20 21  1  0
 21 22  1  0
 22 23  1  0
 22 24  1  0
 24 25  1  0
 24 26  1  0
 19 27  1  0
 27 28  1  6
 27 29  1  0
 29 30  1  0
 30 31  1  0
 31 32  1  1
  7  5  1  0
 31 10  1  0
 31 13  1  0
 27 15  1  0
 24 18  1  0
  1 33  1  0
  1 34  1  0
  1 35  1  0
  2 36  1  6
  3 37  1  0
  3 38  1  0
  4 39  1  0
  4 40  1  0
  5 41  1  1
  8 42  1  0
  8 43  1  0
  8 44  1  0
  9 45  1  0
  9 46  1  0
  9 47  1  0
 10 48  1  1
 11 49  1  0
 11 50  1  0
 12 51  1  0
 12 52  1  0
 14 53  1  0
 14 54  1  0
 14 55  1  0
 15 56  1  6
 16 57  1  0
 16 58  1  0
 17 59  1  0
 19 60  1  1
 20 61  1  0
 20 62  1  0
 21 63  1  0
 21 64  1  0
 22 65  1  1
 23 66  1  0
 25 67  1  0
 25 68  1  0
 25 69  1  0
 26 70  1  0
 26 71  1  0
 26 72  1  0
 28 73  1  0
 28 74  1  0
 28 75  1  0
 29 76  1  0
 29 77  1  0
 30 78  1  0
 30 79  1  0
 32 80  1  0
 32 81  1  0
 32 82  1  0
M  END
>  <meeko>  (1) 
{"is_sidechain": [false], "intermolecular_energy": 2.731, "internal_energy": -0.839}

$$$$
EPH_relaxed_0001_pdb2pqr_Repair_222_r2_0001_out
     RDKit          3D

 82 86  0  0  0  0  0  0  0  0999 V2000
   -1.7480    8.5800   -1.7330 C   0  0  0  0  0  0  0  0  0  0  0  0
   -1.7750    9.0280   -0.2700 C   0  0  2  0  0  0  0  0  0  0  0  0
   -3.2090    9.2960    0.2300 C   0  0  0  0  0  0  0  0  0  0  0  0
   -4.2770    9.1420   -0.8560 C   0  0  0  0  0  0  0  0  0  0  0  0
   -4.8960    7.7770   -0.8340 C   0  0  2  0  0  0  0  0  0  0  0  0
   -4.9920    7.1420   -2.1160 O   0  0  0  0  0  0  0  0  0  0  0  0
   -6.2360    7.4550   -1.4690 C   0  0  0  0  0  0  0  0  0  0  0  0
   -7.0390    8.5060   -2.1700 C   0  0  0  0  0  0  0  0  0  0  0  0
   -6.9850    6.2520   -0.9890 C   0  0  0  0  0  0  0  0  0  0  0  0
   -0.9190   10.2770   -0.0930 C   0  0  1  0  0  0  0  0  0  0  0  0
    0.2450   10.0670    0.9120 C   0  0  0  0  0  0  0  0  0  0  0  0
    1.4410   10.9050    0.3920 C   0  0  0  0  0  0  0  0  0  0  0  0
    0.8320   11.8220   -0.6960 C   0  0  1  0  0  0  0  0  0  0  0  0
    0.1840   13.0030    0.0920 C   0  0  0  0  0  0  0  0  0  0  0  0
    1.8150   12.3330   -1.7980 C   0  0  2  0  0  0  0  0  0  0  0  0
    2.9650   13.2180   -1.2870 C   0  0  0  0  0  0  0  0  0  0  0  0
    2.6790   14.6830   -1.2590 C   0  0  0  0  0  0  0  0  0  0  0  0
    1.6580   15.2930   -1.8910 C   0  0  0  0  0  0  0  0  0  0  0  0
    0.7170   14.5040   -2.8100 C   0  0  1  0  0  0  0  0  0  0  0  0
    0.5120   15.2850   -4.1340 C   0  0  0  0  0  0  0  0  0  0  0  0
    0.0360   16.7160   -3.9020 C   0  0  0  0  0  0  0  0  0  0  0  0
    1.0270   17.4850   -3.0320 C   0  0  2  0  0  0  0  0  0  0  0  0
    2.2470   17.6520   -3.7600 O   0  0  0  0  0  0  0  0  0  0  0  0
    1.3200   16.7880   -1.6740 C   0  0  0  0  0  0  0  0  0  0  0  0
    0.0700   16.8770   -0.7630 C   0  0  0  0  0  0  0  0  0  0  0  0
    2.4380   17.5920   -0.9560 C   0  0  0  0  0  0  0  0  0  0  0  0
    1.1010   12.9810   -3.0530 C   0  0  1  0  0  0  0  0  0  0  0  0
    2.1040   12.8680   -4.2430 C   0  0  0  0  0  0  0  0  0  0  0  0
   -0.1890   12.1880   -3.4830 C   0  0  0  0  0  0  0  0  0  0  0  0
   -1.0550   11.6040   -2.3510 C   0  0  0  0  0  0  0  0  0  0  0  0
   -0.1970   10.8280   -1.3480 C   0  0  2  0  0  0  0  0  0  0  0  0
    0.4500    9.6190   -2.1070 C   0  0  0  0  0  0  0  0  0  0  0  0
   -1.6819    7.4830   -1.7794 H   0  0  0  0  0  0  0  0  0  0  0  0
   -2.6679    8.9135   -2.2356 H   0  0  0  0  0  0  0  0  0  0  0  0
   -0.8748    9.0215   -2.2356 H   0  0  0  0  0  0  0  0  0  0  0  0
   -1.3636    8.2065    0.3349 H   0  0  0  0  0  0  0  0  0  0  0  0
   -3.4327    8.5867    1.0404 H   0  0  0  0  0  0  0  0  0  0  0  0
   -3.2419   10.3423    0.5679 H   0  0  0  0  0  0  0  0  0  0  0  0
   -5.0637    9.8930   -0.6916 H   0  0  0  0  0  0  0  0  0  0  0  0
   -3.7948    9.2845   -1.8343 H   0  0  0  0  0  0  0  0  0  0  0  0
   -4.4898    7.5837    0.1698 H   0  0  0  0  0  0  0  0  0  0  0  0
   -7.5305    9.1493   -1.4254 H   0  0  0  0  0  0  0  0  0  0  0  0
   -6.3746    9.1158   -2.7999 H   0  0  0  0  0  0  0  0  0  0  0  0
   -7.8019    8.0252   -2.7999 H   0  0  0  0  0  0  0  0  0  0  0  0
   -6.9927    6.2396    0.1109 H   0  0  0  0  0  0  0  0  0  0  0  0
   -8.0189    6.2907   -1.3625 H   0  0  0  0  0  0  0  0  0  0  0  0
   -6.4940    5.3413   -1.3625 H   0  0  0  0  0  0  0  0  0  0  0  0
   -1.6932   10.9855    0.2367 H   0  0  0  0  0  0  0  0  0  0  0  0
   -0.0522   10.4118    1.9134 H   0  0  0  0  0  0  0  0  0  0  0  0
    0.5124    9.0029    0.9901 H   0  0  0  0  0  0  0  0  0  0  0  0
    1.8779   11.5040    1.2046 H   0  0  0  0  0  0  0  0  0  0  0  0
    2.2526   10.2746   -0.0004 H   0  0  0  0  0  0  0  0  0  0  0  0
    0.2836   12.8214    1.1723 H   0  0  0  0  0  0  0  0  0  0  0  0
    0.6932   13.9421   -0.1705 H   0  0  0  0  0  0  0  0  0  0  0  0
   -0.8816   13.0780   -0.1705 H   0  0  0  0  0  0  0  0  0  0  0  0
    2.2863   11.4013   -2.1442 H   0  0  0  0  0  0  0  0  0  0  0  0
    3.2093   12.8999   -0.2627 H   0  0  0  0  0  0  0  0  0  0  0  0
    3.7921   13.0832   -1.9996 H   0  0  0  0  0  0  0  0  0  0  0  0
    3.3596   15.3178   -0.6727 H   0  0  0  0  0  0  0  0  0  0  0  0
   -0.2388   14.4250   -2.2713 H   0  0  0  0  0  0  0  0  0  0  0  0
    1.4681   15.3152   -4.6771 H   0  0  0  0  0  0  0  0  0  0  0  0
   -0.2658   14.7641   -4.7117 H   0  0  0  0  0  0  0  0  0  0  0  0
   -0.0619   17.2248   -4.8723 H   0  0  0  0  0  0  0  0  0  0  0  0
   -0.9346   16.6843   -3.3854 H   0  0  0  0  0  0  0  0  0  0  0  0
    0.5707   18.4570   -2.7933 H   0  0  0  0  0  0  0  0  0  0  0  0
    2.7560   16.8280   -3.6760 H   0  0  0  0  0  0  0  0  0  0  0  0
    0.3824   16.8548    0.2915 H   0  0  0  0  0  0  0  0  0  0  0  0
   -0.4662   17.8156   -0.9668 H   0  0  0  0  0  0  0  0  0  0  0  0
   -0.5938   16.0238   -0.9668 H   0  0  0  0  0  0  0  0  0  0  0  0
    2.3127   17.5019    0.1331 H   0  0  0  0  0  0  0  0  0  0  0  0
    3.4210   17.1926   -1.2463 H   0  0  0  0  0  0  0  0  0  0  0  0
    2.3722   18.6510   -1.2463 H   0  0  0  0  0  0  0  0  0  0  0  0
    3.1256   12.7529   -3.8518 H   0  0  0  0  0  0  0  0  0  0  0  0
    1.8462   11.9932   -4.8580 H   0  0  0  0  0  0  0  0  0  0  0  0
    2.0473   13.7782   -4.8580 H   0  0  0  0  0  0  0  0  0  0  0  0
   -0.8217   12.8731   -4.0663 H   0  0  0  0  0  0  0  0  0  0  0  0
    0.1821   11.3155   -4.0407 H   0  0  0  0  0  0  0  0  0  0  0  0
   -1.5650   12.4262   -1.8276 H   0  0  0  0  0  0  0  0  0  0  0  0
   -1.7890   10.9136   -2.7920 H   0  0  0  0  0  0  0  0  0  0  0  0
    0.8383    8.8933   -1.3772 H   0  0  0  0  0  0  0  0  0  0  0  0
   -0.3090    9.1338   -2.7383 H   0  0  0  0  0  0  0  0  0  0  0  0
    1.2748    9.9813   -2.7383 H   0  0  0  0  0  0  0  0  0  0  0  0
  1  2  1  0
  2  3  1  0
  3  4  1  0
  4  5  1  0
  5  6  1  0
  6  7  1  0
  7  8  1  0
  7  9  1  0
  2 10  1  0
 10 11  1  0
 11 12  1  0
 12 13  1  0
 13 14  1  1
 13 15  1  0
 15 16  1  0
 16 17  1  0
 17 18  2  0
 18 19  1  0
 19 20  1  0
 20 21  1  0
 21 22  1  0
 22 23  1  0
 22 24  1  0
 24 25  1  0
 24 26  1  0
 19 27  1  0
 27 28  1  6
 27 29  1  0
 29 30  1  0
 30 31  1  0
 31 32  1  6
  7  5  1  0
 31 10  1  0
 31 13  1  0
 27 15  1  0
 24 18  1  0
  1 33  1  0
  1 34  1  0
  1 35  1  0
  2 36  1  1
  3 37  1  0
  3 38  1  0
  4 39  1  0
  4 40  1  0
  5 41  1  1
  8 42  1  0
  8 43  1  0
  8 44  1  0
  9 45  1  0
  9 46  1  0
  9 47  1  0
 10 48  1  1
 11 49  1  0
 11 50  1  0
 12 51  1  0
 12 52  1  0
 14 53  1  0
 14 54  1  0
 14 55  1  0
 15 56  1  6
 16 57  1  0
 16 58  1  0
 17 59  1  0
 19 60  1  1
 20 61  1  0
 20 62  1  0
 21 63  1  0
 21 64  1  0
 22 65  1  1
 23 66  1  0
 25 67  1  0
 25 68  1  0
 25 69  1  0
 26 70  1  0
 26 71  1  0
 26 72  1  0
 28 73  1  0
 28 74  1  0
 28 75  1  0
 29 76  1  0
 29 77  1  0
 30 78  1  0
 30 79  1  0
 32 80  1  0
 32 81  1  0
 32 82  1  0
M  END
>  <meeko>  (2) 
{"is_sidechain": [false], "intermolecular_energy": 2.731, "internal_energy": -0.839}

$$$$
EPH_relaxed_0001_pdb2pqr_Repair_222_r2_0001_out
     RDKit          3D

 82 86  0  0  0  0  0  0  0  0999 V2000
   -5.1440    5.8590   -1.7400 C   0  0  0  0  0  0  0  0  0  0  0  0
   -5.4480    7.3590   -1.7970 C   0  0  2  0  0  0  0  0  0  0  0  0
   -5.2220    8.0490   -0.4370 C   0  0  0  0  0  0  0  0  0  0  0  0
   -4.1740    9.1640   -0.4800 C   0  0  0  0  0  0  0  0  0  0  0  0
   -2.8120    8.6320   -0.8080 C   0  0  2  0  0  0  0  0  0  0  0  0
   -1.7980    8.9480    0.1550 O   0  0  0  0  0  0  0  0  0  0  0  0
   -1.6290    9.5170   -1.1530 C   0  0  0  0  0  0  0  0  0  0  0  0
   -1.7540   11.0080   -1.1900 C   0  0  0  0  0  0  0  0  0  0  0  0
   -0.4930    8.9230   -1.9270 C   0  0  0  0  0  0  0  0  0  0  0  0
   -6.8830    7.5810   -2.2620 C   0  0  1  0  0  0  0  0  0  0  0  0
   -7.1870    6.8860   -3.6160 C   0  0  0  0  0  0  0  0  0  0  0  0
   -8.6600    6.4070   -3.5530 C   0  0  0  0  0  0  0  0  0  0  0  0
   -9.2500    7.1250   -2.3160 C   0  0  1  0  0  0  0  0  0  0  0  0
   -9.6060    8.5600   -2.8180 C   0  0  0  0  0  0  0  0  0  0  0  0
  -10.4750    6.4320   -1.6340 C   0  0  2  0  0  0  0  0  0  0  0  0
  -11.7280    6.3030   -2.5180 C   0  0  0  0  0  0  0  0  0  0  0  0
  -12.6860    7.4450   -2.4360 C   0  0  0  0  0  0  0  0  0  0  0  0
  -12.6930    8.3930   -1.4810 C   0  0  0  0  0  0  0  0  0  0  0  0
  -11.7300    8.3180   -0.2890 C   0  0  1  0  0  0  0  0  0  0  0  0
  -12.5080    8.5930    1.0240 C   0  0  0  0  0  0  0  0  0  0  0  0
  -13.2820    9.9070    0.9820 C   0  0  0  0  0  0  0  0  0  0  0  0
  -14.2710    9.9200   -0.1810 C   0  0  2  0  0  0  0  0  0  0  0  0
  -15.2850    8.9410    0.0660 O   0  0  0  0  0  0  0  0  0  0  0  0
  -13.6020    9.6440   -1.5570 C   0  0  0  0  0  0  0  0  0  0  0  0
  -12.7280   10.8560   -1.9630 C   0  0  0  0  0  0  0  0  0  0  0  0
  -14.7270    9.5450   -2.6230 C   0  0  0  0  0  0  0  0  0  0  0  0
  -10.8320    7.0090   -0.2050 C   0  0  1  0  0  0  0  0  0  0  0  0
  -11.6040    5.8830    0.5490 C   0  0  0  0  0  0  0  0  0  0  0  0
   -9.5490    7.3200    0.6530 C   0  0  0  0  0  0  0  0  0  0  0  0
   -8.3320    7.8910   -0.0990 C   0  0  0  0  0  0  0  0  0  0  0  0
   -8.0170    7.0580   -1.3440 C   0  0  2  0  0  0  0  0  0  0  0  0
   -7.6340    5.6150   -0.8700 C   0  0  0  0  0  0  0  0  0  0  0  0
   -5.0789    5.5377   -0.6900 H   0  0  0  0  0  0  0  0  0  0  0  0
   -5.9476    5.3026   -2.2445 H   0  0  0  0  0  0  0  0  0  0  0  0
   -4.1871    5.6594   -2.2445 H   0  0  0  0  0  0  0  0  0  0  0  0
   -4.7498    7.8114   -2.5166 H   0  0  0  0  0  0  0  0  0  0  0  0
   -6.1768    8.4823   -0.1044 H   0  0  0  0  0  0  0  0  0  0  0  0
   -4.8463    7.2809    0.2550 H   0  0  0  0  0  0  0  0  0  0  0  0
   -4.4646    9.8970   -1.2469 H   0  0  0  0  0  0  0  0  0  0  0  0
   -4.1293    9.6312    0.5149 H   0  0  0  0  0  0  0  0  0  0  0  0
   -3.2491    7.7559   -1.3094 H   0  0  0  0  0  0  0  0  0  0  0  0
   -1.7868   11.3988   -0.1623 H   0  0  0  0  0  0  0  0  0  0  0  0
   -0.8885   11.4355   -1.7175 H   0  0  0  0  0  0  0  0  0  0  0  0
   -2.6786   11.2855   -1.7175 H   0  0  0  0  0  0  0  0  0  0  0  0
    0.2602    8.5292   -1.2287 H   0  0  0  0  0  0  0  0  0  0  0  0
   -0.8685    8.1058   -2.5604 H   0  0  0  0  0  0  0  0  0  0  0  0
   -0.0362    9.6977   -2.5604 H   0  0  0  0  0  0  0  0  0  0  0  0
   -6.8991    8.6805   -2.2914 H   0  0  0  0  0  0  0  0  0  0  0  0
   -7.0552    7.5973   -4.4447 H   0  0  0  0  0  0  0  0  0  0  0  0
   -6.5042    6.0409   -3.7878 H   0  0  0  0  0  0  0  0  0  0  0  0
   -9.2020    6.6963   -4.4654 H   0  0  0  0  0  0  0  0  0  0  0  0
   -8.7404    5.3125   -3.4784 H   0  0  0  0  0  0  0  0  0  0  0  0
   -9.7699    9.2206   -1.9539 H   0  0  0  0  0  0  0  0  0  0  0  0
   -8.7777    8.9514   -3.4269 H   0  0  0  0  0  0  0  0  0  0  0  0
  -10.5212    8.5189   -3.4269 H   0  0  0  0  0  0  0  0  0  0  0  0
  -10.1110    5.4052   -1.4820 H   0  0  0  0  0  0  0  0  0  0  0  0
  -11.3985    6.2101   -3.5634 H   0  0  0  0  0  0  0  0  0  0  0  0
  -12.2724    5.4217   -2.1479 H   0  0  0  0  0  0  0  0  0  0  0  0
  -13.4511    7.5177   -3.2230 H   0  0  0  0  0  0  0  0  0  0  0  0
  -10.9827    9.1087   -0.4513 H   0  0  0  0  0  0  0  0  0  0  0  0
  -13.2189    7.7704    1.1914 H   0  0  0  0  0  0  0  0  0  0  0  0
  -11.7724    8.6650    1.8387 H   0  0  0  0  0  0  0  0  0  0  0  0
  -13.8340   10.0301    1.9255 H   0  0  0  0  0  0  0  0  0  0  0  0
  -12.5671   10.7317    0.8445 H   0  0  0  0  0  0  0  0  0  0  0  0
  -14.7003   10.9311   -0.2383 H   0  0  0  0  0  0  0  0  0  0  0  0
  -14.8810    8.2220    0.5800 H   0  0  0  0  0  0  0  0  0  0  0  0
  -12.3620   11.3636   -1.0583 H   0  0  0  0  0  0  0  0  0  0  0  0
  -11.8721   10.5074   -2.5595 H   0  0  0  0  0  0  0  0  0  0  0  0
  -13.3290   11.5580   -2.5595 H   0  0  0  0  0  0  0  0  0  0  0  0
  -15.7018    9.4592   -2.1205 H   0  0  0  0  0  0  0  0  0  0  0  0
  -14.7168   10.4475   -3.2518 H   0  0  0  0  0  0  0  0  0  0  0  0
  -14.5593    8.6581   -3.2518 H   0  0  0  0  0  0  0  0  0  0  0  0
  -11.5020    6.0318    1.6341 H   0  0  0  0  0  0  0  0  0  0  0  0
  -12.6680    5.9194    0.2723 H   0  0  0  0  0  0  0  0  0  0  0  0
  -11.1865    4.9036    0.2723 H   0  0  0  0  0  0  0  0  0  0  0  0
   -9.8343    8.0486    1.4261 H   0  0  0  0  0  0  0  0  0  0  0  0
   -9.2173    6.3446    1.0386 H   0  0  0  0  0  0  0  0  0  0  0  0
   -8.5501    8.9252   -0.4037 H   0  0  0  0  0  0  0  0  0  0  0  0
   -7.4605    7.8628    0.5716 H   0  0  0  0  0  0  0  0  0  0  0  0
   -7.6249    5.5805    0.2294 H   0  0  0  0  0  0  0  0  0  0  0  0
   -8.3722    4.8951   -1.2533 H   0  0  0  0  0  0  0  0  0  0  0  0
   -6.6360    5.3560   -1.2533 H   0  0  0  0  0  0  0  0  0  0  0  0
  1  2  1  0
  2  3  1  0
  3  4  1  0
  4  5  1  0
  5  6  1  0
  6  7  1  0
  7  8  1  0
  7  9  1  0
  2 10  1  0
 10 11  1  0
 11 12  1  0
 12 13  1  0
 13 14  1  6
 13 15  1  0
 15 16  1  0
 16 17  1  0
 17 18  2  0
 18 19  1  0
 19 20  1  0
 20 21  1  0
 21 22  1  0
 22 23  1  0
 22 24  1  0
 24 25  1  0
 24 26  1  0
 19 27  1  0
 27 28  1  1
 27 29  1  0
 29 30  1  0
 30 31  1  0
 31 32  1  1
  7  5  1  0
 31 10  1  0
 31 13  1  0
 27 15  1  0
 24 18  1  0
  1 33  1  0
  1 34  1  0
  1 35  1  0
  2 36  1  6
  3 37  1  0
  3 38  1  0
  4 39  1  0
  4 40  1  0
  5 41  1  6
  8 42  1  0
  8 43  1  0
  8 44  1  0
  9 45  1  0
  9 46  1  0
  9 47  1  0
 10 48  1  6
 11 49  1  0
 11 50  1  0
 12 51  1  0
 12 52  1  0
 14 53  1  0
 14 54  1  0
 14 55  1  0
 15 56  1  1
 16 57  1  0
 16 58  1  0
 17 59  1  0
 19 60  1  6
 20 61  1  0
 20 62  1  0
 21 63  1  0
 21 64  1  0
 22 65  1  6
 23 66  1  0
 25 67  1  0
 25 68  1  0
 25 69  1  0
 26 70  1  0
 26 71  1  0
 26 72  1  0
 28 73  1  0
 28 74  1  0
 28 75  1  0
 29 76  1  0
 29 77  1  0
 30 78  1  0
 30 79  1  0
 32 80  1  0
 32 81  1  0
 32 82  1  0
M  END
>  <meeko>  (3) 
{"is_sidechain": [false], "intermolecular_energy": 2.731, "internal_energy": -0.839}

$$$$
EPH_relaxed_0001_pdb2pqr_Repair_222_r2_0001_out
     RDKit          3D

 82 86  0  0  0  0  0  0  0  0999 V2000
   -0.1240   16.9670    0.2530 C   0  0  0  0  0  0  0  0  0  0  0  0
   -0.6700   15.5370    0.2620 C   0  0  2  0  0  0  0  0  0  0  0  0
   -1.3950   15.2010    1.5800 C   0  0  0  0  0  0  0  0  0  0  0  0
   -0.4630   15.1240    2.7920 C   0  0  0  0  0  0  0  0  0  0  0  0
   -1.1980   14.7110    4.0320 C   0  0  2  0  0  0  0  0  0  0  0  0
   -0.4130   14.7390    5.2310 O   0  0  0  0  0  0  0  0  0  0  0  0
   -0.8820   13.4470    4.8100 C   0  0  0  0  0  0  0  0  0  0  0  0
    0.2070   12.5160    4.3770 C   0  0  0  0  0  0  0  0  0  0  0  0
   -1.9390   12.8710    5.6990 C   0  0  0  0  0  0  0  0  0  0  0  0
    0.4630   14.5460    0.0230 C   0  0  1  0  0  0  0  0  0  0  0  0
    0.6570   13.5630    1.2070 C   0  0  0  0  0  0  0  0  0  0  0  0
    1.0850   12.2040    0.5960 C   0  0  0  0  0  0  0  0  0  0  0  0
    1.4450   12.5330   -0.8720 C   0  0  1  0  0  0  0  0  0  0  0  0
    2.8950   13.1070   -0.8110 C   0  0  0  0  0  0  0  0  0  0  0  0
    1.3330   11.3540   -1.8920 C   0  0  2  0  0  0  0  0  0  0  0  0
    2.2750   10.1680   -1.6240 C   0  0  0  0  0  0  0  0  0  0  0  0
    3.6080   10.2480   -2.2920 C   0  0  0  0  0  0  0  0  0  0  0  0
    3.9290   11.0830   -3.2980 C   0  0  0  0  0  0  0  0  0  0  0  0
    2.8730   11.9980   -3.9310 C   0  0  1  0  0  0  0  0  0  0  0  0
    2.9780   11.9190   -5.4760 C   0  0  0  0  0  0  0  0  0  0  0  0
    4.3860   12.2170   -5.9830 C   0  0  0  0  0  0  0  0  0  0  0  0
    5.3990   11.2500   -5.3760 C   0  0  2  0  0  0  0  0  0  0  0  0
    5.1360    9.9340   -5.8730 O   0  0  0  0  0  0  0  0  0  0  0  0
    5.3790   11.2350   -3.8220 C   0  0  0  0  0  0  0  0  0  0  0  0
    5.9540   12.5680   -3.2820 C   0  0  0  0  0  0  0  0  0  0  0  0
    6.3450   10.1190   -3.3420 C   0  0  0  0  0  0  0  0  0  0  0  0
    1.3840   11.8020   -3.4090 C   0  0  1  0  0  0  0  0  0  0  0  0
    0.6770   10.6800   -4.2290 C   0  0  0  0  0  0  0  0  0  0  0  0
    0.5690   13.1240   -3.6710 C   0  0  0  0  0  0  0  0  0  0  0  0
    0.6240   14.2020   -2.5720 C   0  0  0  0  0  0  0  0  0  0  0  0
    0.3330   13.5970   -1.1950 C   0  0  2  0  0  0  0  0  0  0  0  0
   -1.1280   13.0320   -1.2200 C   0  0  0  0  0  0  0  0  0  0  0  0
    0.0090   17.3152    1.2879 H   0  0  0  0  0  0  0  0  0  0  0  0
    0.8448   16.9863   -0.2677 H   0  0  0  0  0  0  0  0  0  0  0  0
   -0.8334   17.6271   -0.2677 H   0  0  0  0  0  0  0  0  0  0  0  0
   -1.4083   15.4596   -0.5498 H   0  0  0  0  0  0  0  0  0  0  0  0
   -2.1486   15.9794    1.7702 H   0  0  0  0  0  0  0  0  0  0  0  0
   -1.8437   14.2044    1.4554 H   0  0  0  0  0  0  0  0  0  0  0  0
    0.3295   14.3894    2.5861 H   0  0  0  0  0  0  0  0  0  0  0  0
   -0.0388   16.1245    2.9623 H   0  0  0  0  0  0  0  0  0  0  0  0
   -2.1405   15.1179    3.6370 H   0  0  0  0  0  0  0  0  0  0  0  0
    0.7018   12.0930    5.2637 H   0  0  0  0  0  0  0  0  0  0  0  0
   -0.2239   11.7027    3.7746 H   0  0  0  0  0  0  0  0  0  0  0  0
    0.9434   13.0681    3.7746 H   0  0  0  0  0  0  0  0  0  0  0  0
   -1.6570   13.0247    6.7511 H   0  0  0  0  0  0  0  0  0  0  0  0
   -2.8983   13.3711    5.4997 H   0  0  0  0  0  0  0  0  0  0  0  0
   -2.0387   11.7938    5.4997 H   0  0  0  0  0  0  0  0  0  0  0  0
    1.2929   15.2504   -0.1355 H   0  0  0  0  0  0  0  0  0  0  0  0
    1.4388   13.9363    1.8848 H   0  0  0  0  0  0  0  0  0  0  0  0
   -0.2703   13.4591    1.7895 H   0  0  0  0  0  0  0  0  0  0  0  0
    1.9574   11.7965    1.1279 H   0  0  0  0  0  0  0  0  0  0  0  0
    0.2929   11.4445    0.6714 H   0  0  0  0  0  0  0  0  0  0  0  0
    3.1980   13.2269    0.2396 H   0  0  0  0  0  0  0  0  0  0  0  0
    3.5851   12.4142   -1.3148 H   0  0  0  0  0  0  0  0  0  0  0  0
    2.9239   14.0844   -1.3148 H   0  0  0  0  0  0  0  0  0  0  0  0
    0.3169   10.9762   -1.7052 H   0  0  0  0  0  0  0  0  0  0  0  0
    2.4421   10.1053   -0.5386 H   0  0  0  0  0  0  0  0  0  0  0  0
    1.7765    9.2825   -2.0452 H   0  0  0  0  0  0  0  0  0  0  0  0
    4.3937    9.5675   -1.9319 H   0  0  0  0  0  0  0  0  0  0  0  0
    3.1115   13.0173   -3.5932 H   0  0  0  0  0  0  0  0  0  0  0  0
    2.6946   10.9058   -5.7973 H   0  0  0  0  0  0  0  0  0  0  0  0
    2.3040   12.6803   -5.8957 H   0  0  0  0  0  0  0  0  0  0  0  0
    4.4033   12.1163   -7.0782 H   0  0  0  0  0  0  0  0  0  0  0  0
    4.6568   13.2413   -5.6873 H   0  0  0  0  0  0  0  0  0  0  0  0
    6.4007   11.5943   -5.6728 H   0  0  0  0  0  0  0  0  0  0  0  0
    4.1720    9.8410   -5.9620 H   0  0  0  0  0  0  0  0  0  0  0  0
    5.9469   12.5516   -2.1821 H   0  0  0  0  0  0  0  0  0  0  0  0
    6.9864   12.6938   -3.6402 H   0  0  0  0  0  0  0  0  0  0  0  0
    5.3370   13.4053   -3.6402 H   0  0  0  0  0  0  0  0  0  0  0  0
    6.3633   10.0979   -2.2424 H   0  0  0  0  0  0  0  0  0  0  0  0
    5.9991    9.1463   -3.7217 H   0  0  0  0  0  0  0  0  0  0  0  0
    7.3572   10.3219   -3.7217 H   0  0  0  0  0  0  0  0  0  0  0  0
    0.2200    9.9547   -3.5397 H   0  0  0  0  0  0  0  0  0  0  0  0
   -0.1037   11.1257   -4.8629 H   0  0  0  0  0  0  0  0  0  0  0  0
    1.4160   10.1681   -4.8629 H   0  0  0  0  0  0  0  0  0  0  0  0
    0.9534   13.5739   -4.5983 H   0  0  0  0  0  0  0  0  0  0  0  0
   -0.4842   12.8096   -3.7140 H   0  0  0  0  0  0  0  0  0  0  0  0
    1.6266   14.6544   -2.5616 H   0  0  0  0  0  0  0  0  0  0  0  0
   -0.1398   14.9632   -2.7890 H   0  0  0  0  0  0  0  0  0  0  0  0
   -1.4854   12.8938   -0.1889 H   0  0  0  0  0  0  0  0  0  0  0  0
   -1.7862   13.7404   -1.7443 H   0  0  0  0  0  0  0  0  0  0  0  0
   -1.1383   12.0651   -1.7443 H   0  0  0  0  0  0  0  0  0  0  0  0
  1  2  1  0
  2  3  1  0
  3  4  1  0
  4  5  1  0
  5  6  1  0
  6  7  1  0
  7  8  1  0
  7  9  1  0
  2 10  1  0
 10 11  1  0
 11 12  1  0
 12 13  1  0
 13 14  1  1
 13 15  1  0
 15 16  1  0
 16 17  1  0
 17 18  2  0
 18 19  1  0
 19 20  1  0
 20 21  1  0
 21 22  1  0
 22 23  1  0
 22 24  1  0
 24 25  1  0
 24 26  1  0
 19 27  1  0
 27 28  1  6
 27 29  1  0
 29 30  1  0
 30 31  1  0
 31 32  1  6
  7  5  1  0
 31 10  1  0
 31 13  1  0
 27 15  1  0
 24 18  1  0
  1 33  1  0
  1 34  1  0
  1 35  1  0
  2 36  1  6
  3 37  1  0
  3 38  1  0
  4 39  1  0
  4 40  1  0
  5 41  1  1
  8 42  1  0
  8 43  1  0
  8 44  1  0
  9 45  1  0
  9 46  1  0
  9 47  1  0
 10 48  1  6
 11 49  1  0
 11 50  1  0
 12 51  1  0
 12 52  1  0
 14 53  1  0
 14 54  1  0
 14 55  1  0
 15 56  1  6
 16 57  1  0
 16 58  1  0
 17 59  1  0
 19 60  1  1
 20 61  1  0
 20 62  1  0
 21 63  1  0
 21 64  1  0
 22 65  1  1
 23 66  1  0
 25 67  1  0
 25 68  1  0
 25 69  1  0
 26 70  1  0
 26 71  1  0
 26 72  1  0
 28 73  1  0
 28 74  1  0
 28 75  1  0
 29 76  1  0
 29 77  1  0
 30 78  1  0
 30 79  1  0
 32 80  1  0
 32 81  1  0
 32 82  1  0
M  END
>  <meeko>  (4) 
{"is_sidechain": [false], "intermolecular_energy": 2.731, "internal_energy": -0.839}

$$$$
EPH_relaxed_0001_pdb2pqr_Repair_222_r2_0001_out
     RDKit          3D

 82 86  0  0  0  0  0  0  0  0999 V2000
   -0.8100   14.0630    3.3310 C   0  0  0  0  0  0  0  0  0  0  0  0
   -0.1290   14.7760    2.1590 C   0  0  2  0  0  0  0  0  0  0  0  0
   -1.1500   15.3550    1.1600 C   0  0  0  0  0  0  0  0  0  0  0  0
   -1.0070   16.8630    0.9370 C   0  0  0  0  0  0  0  0  0  0  0  0
    0.0580   17.1760   -0.0690 C   0  0  2  0  0  0  0  0  0  0  0  0
    0.8720   18.3120    0.2530 O   0  0  0  0  0  0  0  0  0  0  0  0
    0.0580   18.4290   -0.9250 C   0  0  0  0  0  0  0  0  0  0  0  0
   -1.0310   19.4500   -0.8140 C   0  0  0  0  0  0  0  0  0  0  0  0
    0.8410   18.4240   -2.2010 C   0  0  0  0  0  0  0  0  0  0  0  0
    0.8130   13.8150    1.4440 C   0  0  1  0  0  0  0  0  0  0  0  0
    1.1760   12.5790    2.3080 C   0  0  0  0  0  0  0  0  0  0  0  0
    1.3130   11.3780    1.3370 C   0  0  0  0  0  0  0  0  0  0  0  0
    1.3550   12.0180   -0.0700 C   0  0  1  0  0  0  0  0  0  0  0  0
    2.8300   12.4950   -0.2510 C   0  0  0  0  0  0  0  0  0  0  0  0
    0.8930   11.1100   -1.2560 C   0  0  2  0  0  0  0  0  0  0  0  0
    1.7490    9.8520   -1.4870 C   0  0  0  0  0  0  0  0  0  0  0  0
    2.8920   10.0220   -2.4310 C   0  0  0  0  0  0  0  0  0  0  0  0
    3.0540   11.0500   -3.2850 C   0  0  0  0  0  0  0  0  0  0  0  0
    1.9770   12.1330   -3.4290 C   0  0  1  0  0  0  0  0  0  0  0  0
    1.7140   12.4050   -4.9330 C   0  0  0  0  0  0  0  0  0  0  0  0
    2.9890   12.7460   -5.6980 C   0  0  0  0  0  0  0  0  0  0  0  0
    4.0140   11.6200   -5.5790 C   0  0  2  0  0  0  0  0  0  0  0  0
    3.5120   10.4670   -6.2620 O   0  0  0  0  0  0  0  0  0  0  0  0
    4.3510   11.2510   -4.1080 C   0  0  0  0  0  0  0  0  0  0  0  0
    5.1660   12.3970   -3.4580 C   0  0  0  0  0  0  0  0  0  0  0  0
    5.2850   10.0110   -4.1290 C   0  0  0  0  0  0  0  0  0  0  0  0
    0.6370   11.8910   -2.6090 C   0  0  1  0  0  0  0  0  0  0  0  0
   -0.3490   11.0200   -3.4460 C   0  0  0  0  0  0  0  0  0  0  0  0
   -0.0800   13.2730   -2.3760 C   0  0  0  0  0  0  0  0  0  0  0  0
    0.3350   14.0680   -1.1220 C   0  0  0  0  0  0  0  0  0  0  0  0
    0.3110   13.1770    0.1240 C   0  0  2  0  0  0  0  0  0  0  0  0
   -1.1650   12.7000    0.3430 C   0  0  0  0  0  0  0  0  0  0  0  0
   -0.4249   14.4662    4.2792 H   0  0  0  0  0  0  0  0  0  0  0  0
   -1.8966   14.2257    3.2778 H   0  0  0  0  0  0  0  0  0  0  0  0
   -0.5976   12.9850    3.2778 H   0  0  0  0  0  0  0  0  0  0  0  0
    0.4436   15.6199    2.5714 H   0  0  0  0  0  0  0  0  0  0  0  0
   -1.0165   14.8470    0.1935 H   0  0  0  0  0  0  0  0  0  0  0  0
   -2.1491   15.1871    1.5884 H   0  0  0  0  0  0  0  0  0  0  0  0
   -1.9664   17.2626    0.5765 H   0  0  0  0  0  0  0  0  0  0  0  0
   -0.7217   17.3255    1.8934 H   0  0  0  0  0  0  0  0  0  0  0  0
    0.1664   16.1105   -0.3200 H   0  0  0  0  0  0  0  0  0  0  0  0
   -1.2416   19.6475    0.2474 H   0  0  0  0  0  0  0  0  0  0  0  0
   -0.7115   20.3816   -1.3039 H   0  0  0  0  0  0  0  0  0  0  0  0
   -1.9401   19.0712   -1.3039 H   0  0  0  0  0  0  0  0  0  0  0  0
    1.9167   18.4171   -1.9711 H   0  0  0  0  0  0  0  0  0  0  0  0
    0.5851   17.5275   -2.7847 H   0  0  0  0  0  0  0  0  0  0  0  0
    0.5966   19.3237   -2.7847 H   0  0  0  0  0  0  0  0  0  0  0  0
    1.6501   14.4982    1.2378 H   0  0  0  0  0  0  0  0  0  0  0  0
    2.1266   12.7508    2.8342 H   0  0  0  0  0  0  0  0  0  0  0  0
    0.4029   12.3870    3.0665 H   0  0  0  0  0  0  0  0  0  0  0  0
    2.2394   10.8199    1.5377 H   0  0  0  0  0  0  0  0  0  0  0  0
    0.4879   10.6584    1.4439 H   0  0  0  0  0  0  0  0  0  0  0  0
    3.2910   12.6441    0.7366 H   0  0  0  0  0  0  0  0  0  0  0  0
    3.3957   11.7340   -0.8086 H   0  0  0  0  0  0  0  0  0  0  0  0
    2.8429   13.4431   -0.8086 H   0  0  0  0  0  0  0  0  0  0  0  0
   -0.0847   10.7462   -0.9071 H   0  0  0  0  0  0  0  0  0  0  0  0
    2.1553    9.5345   -0.5153 H   0  0  0  0  0  0  0  0  0  0  0  0
    1.0808    9.1106   -1.9494 H   0  0  0  0  0  0  0  0  0  0  0  0
    3.6674    9.2418   -2.4289 H   0  0  0  0  0  0  0  0  0  0  0  0
    2.3876   13.0357   -2.9530 H   0  0  0  0  0  0  0  0  0  0  0  0
    1.2641   11.5064   -5.3804 H   0  0  0  0  0  0  0  0  0  0  0  0
    1.0411   13.2724   -5.0025 H   0  0  0  0  0  0  0  0  0  0  0  0
    2.7425   12.8979   -6.7592 H   0  0  0  0  0  0  0  0  0  0  0  0
    3.4218   13.6618   -5.2691 H   0  0  0  0  0  0  0  0  0  0  0  0
    4.9500   11.9758   -6.0344 H   0  0  0  0  0  0  0  0  0  0  0  0
    4.2770    9.9490   -6.5650 H   0  0  0  0  0  0  0  0  0  0  0  0
    5.1067   12.3136   -2.3628 H   0  0  0  0  0  0  0  0  0  0  0  0
    6.2169   12.3250   -3.7749 H   0  0  0  0  0  0  0  0  0  0  0  0
    4.7531   13.3661   -3.7749 H   0  0  0  0  0  0  0  0  0  0  0  0
    5.5140    9.7069   -3.0970 H   0  0  0  0  0  0  0  0  0  0  0  0
    4.7840    9.1834   -4.6525 H   0  0  0  0  0  0  0  0  0  0  0  0
    6.2188   10.2641   -4.6525 H   0  0  0  0  0  0  0  0  0  0  0  0
   -0.9981   10.4466   -2.7678 H   0  0  0  0  0  0  0  0  0  0  0  0
   -0.9669   11.6726   -4.0803 H   0  0  0  0  0  0  0  0  0  0  0  0
    0.2224   10.3263   -4.0803 H   0  0  0  0  0  0  0  0  0  0  0  0
    0.1226   13.9052   -3.2531 H   0  0  0  0  0  0  0  0  0  0  0  0
   -1.1406   13.0250   -2.2220 H   0  0  0  0  0  0  0  0  0  0  0  0
    1.3529   14.4599   -1.2647 H   0  0  0  0  0  0  0  0  0  0  0  0
   -0.3781   14.8930   -0.9774 H   0  0  0  0  0  0  0  0  0  0  0  0
   -1.3725   12.6329    1.4212 H   0  0  0  0  0  0  0  0  0  0  0  0
   -1.8556   13.4207   -0.1192 H   0  0  0  0  0  0  0  0  0  0  0  0
   -1.3033   11.7114   -0.1192 H   0  0  0  0  0  0  0  0  0  0  0  0
  1  2  1  0
  2  3  1  0
  3  4  1  0
  4  5  1  0
  5  6  1  0
  6  7  1  0
  7  8  1  0
  7  9  1  0
  2 10  1  0
 10 11  1  0
 11 12  1  0
 12 13  1  0
 13 14  1  6
 13 15  1  0
 15 16  1  0
 16 17  1  0
 17 18  2  0
 18 19  1  0
 19 20  1  0
 20 21  1  0
 21 22  1  0
 22 23  1  0
 22 24  1  0
 24 25  1  0
 24 26  1  0
 19 27  1  0
 27 28  1  6
 27 29  1  0
 29 30  1  0
 30 31  1  0
 31 32  1  1
  7  5  1  0
 31 10  1  0
 31 13  1  0
 27 15  1  0
 24 18  1  0
  1 33  1  0
  1 34  1  0
  1 35  1  0
  2 36  1  1
  3 37  1  0
  3 38  1  0
  4 39  1  0
  4 40  1  0
  5 41  1  6
  8 42  1  0
  8 43  1  0
  8 44  1  0
  9 45  1  0
  9 46  1  0
  9 47  1  0
 10 48  1  6
 11 49  1  0
 11 50  1  0
 12 51  1  0
 12 52  1  0
 14 53  1  0
 14 54  1  0
 14 55  1  0
 15 56  1  1
 16 57  1  0
 16 58  1  0
 17 59  1  0
 19 60  1  1
 20 61  1  0
 20 62  1  0
 21 63  1  0
 21 64  1  0
 22 65  1  6
 23 66  1  0
 25 67  1  0
 25 68  1  0
 25 69  1  0
 26 70  1  0
 26 71  1  0
 26 72  1  0
 28 73  1  0
 28 74  1  0
 28 75  1  0
 29 76  1  0
 29 77  1  0
 30 78  1  0
 30 79  1  0
 32 80  1  0
 32 81  1  0
 32 82  1  0
M  END
>  <meeko>  (5) 
{"is_sidechain": [false], "intermolecular_energy": 2.731, "internal_energy": -0.839}

$$$$
EPH_relaxed_0001_pdb2pqr_Repair_222_r2_0001_out
     RDKit          3D

 82 86  0  0  0  0  0  0  0  0999 V2000
   -5.0200    8.4870   -0.5290 C   0  0  0  0  0  0  0  0  0  0  0  0
   -5.3690    7.4040   -1.5530 C   0  0  2  0  0  0  0  0  0  0  0  0
   -4.3700    7.3720   -2.7280 C   0  0  0  0  0  0  0  0  0  0  0  0
   -2.9300    7.0710   -2.3030 C   0  0  0  0  0  0  0  0  0  0  0  0
   -1.9970    8.1810   -2.6820 C   0  0  2  0  0  0  0  0  0  0  0  0
   -0.6470    8.0080   -2.2320 O   0  0  0  0  0  0  0  0  0  0  0  0
   -1.3630    9.1210   -1.6740 C   0  0  0  0  0  0  0  0  0  0  0  0
   -1.6380    8.9950   -0.2090 C   0  0  0  0  0  0  0  0  0  0  0  0
   -0.8710   10.4530   -2.1490 C   0  0  0  0  0  0  0  0  0  0  0  0
   -6.7830    7.6210   -2.0780 C   0  0  1  0  0  0  0  0  0  0  0  0
   -7.0230    6.9360   -3.4500 C   0  0  0  0  0  0  0  0  0  0  0  0
   -8.4950    6.4480   -3.4550 C   0  0  0  0  0  0  0  0  0  0  0  0
   -9.1430    7.1510   -2.2400 C   0  0  1  0  0  0  0  0  0  0  0  0
   -9.4860    8.5880   -2.7430 C   0  0  0  0  0  0  0  0  0  0  0  0
  -10.3910    6.4450   -1.6170 C   0  0  2  0  0  0  0  0  0  0  0  0
  -11.6040    6.3160   -2.5560 C   0  0  0  0  0  0  0  0  0  0  0  0
  -12.5720    7.4510   -2.5060 C   0  0  0  0  0  0  0  0  0  0  0  0
  -12.6270    8.3900   -1.5430 C   0  0  0  0  0  0  0  0  0  0  0  0
  -11.7160    8.3100   -0.3120 C   0  0  1  0  0  0  0  0  0  0  0  0
  -12.5520    8.5690    0.9690 C   0  0  0  0  0  0  0  0  0  0  0  0
  -13.3320    9.8780    0.9040 C   0  0  0  0  0  0  0  0  0  0  0  0
  -14.2700    9.8950   -0.3000 C   0  0  2  0  0  0  0  0  0  0  0  0
  -15.2870    8.9080   -0.1070 O   0  0  0  0  0  0  0  0  0  0  0  0
  -13.5400    9.6370   -1.6480 C   0  0  0  0  0  0  0  0  0  0  0  0
  -12.6570   10.8580   -2.0050 C   0  0  0  0  0  0  0  0  0  0  0  0
  -14.6170    9.5400   -2.7630 C   0  0  0  0  0  0  0  0  0  0  0  0
  -10.8150    7.0060   -0.2000 C   0  0  1  0  0  0  0  0  0  0  0  0
  -11.6110    5.8690    0.5100 C   0  0  0  0  0  0  0  0  0  0  0  0
   -9.5720    7.3170    0.7160 C   0  0  0  0  0  0  0  0  0  0  0  0
   -8.3270    7.9030    0.0230 C   0  0  0  0  0  0  0  0  0  0  0  0
   -7.9520    7.0830   -1.2150 C   0  0  2  0  0  0  0  0  0  0  0  0
   -7.5810    5.6380   -0.7370 C   0  0  0  0  0  0  0  0  0  0  0  0
   -5.1492    8.0861    0.4872 H   0  0  0  0  0  0  0  0  0  0  0  0
   -3.9752    8.8011   -0.6692 H   0  0  0  0  0  0  0  0  0  0  0  0
   -5.6849    9.3521   -0.6692 H   0  0  0  0  0  0  0  0  0  0  0  0
   -5.3077    6.4325   -1.0407 H   0  0  0  0  0  0  0  0  0  0  0  0
   -4.6925    6.5953   -3.4371 H   0  0  0  0  0  0  0  0  0  0  0  0
   -4.3696    8.3761   -3.1773 H   0  0  0  0  0  0  0  0  0  0  0  0
   -2.9009    6.9378   -1.2115 H   0  0  0  0  0  0  0  0  0  0  0  0
   -2.6036    6.1568   -2.8204 H   0  0  0  0  0  0  0  0  0  0  0  0
   -2.5542    8.3637   -3.6127 H   0  0  0  0  0  0  0  0  0  0  0  0
   -0.7820    9.3872    0.3598 H   0  0  0  0  0  0  0  0  0  0  0  0
   -2.5412    9.5691    0.0452 H   0  0  0  0  0  0  0  0  0  0  0  0
   -1.7930    7.9361    0.0452 H   0  0  0  0  0  0  0  0  0  0  0  0
   -0.6365   11.0878   -1.2818 H   0  0  0  0  0  0  0  0  0  0  0  0
    0.0350   10.3137   -2.7571 H   0  0  0  0  0  0  0  0  0  0  0  0
   -1.6500   10.9361   -2.7571 H   0  0  0  0  0  0  0  0  0  0  0  0
   -6.8052    8.7206   -2.0988 H   0  0  0  0  0  0  0  0  0  0  0  0
   -6.8596    7.6551   -4.2662 H   0  0  0  0  0  0  0  0  0  0  0  0
   -6.3281    6.0965   -3.5992 H   0  0  0  0  0  0  0  0  0  0  0  0
   -8.9984    6.7420   -4.3878 H   0  0  0  0  0  0  0  0  0  0  0  0
   -8.5715    5.3524   -3.3928 H   0  0  0  0  0  0  0  0  0  0  0  0
   -9.6442    9.2507   -1.8794 H   0  0  0  0  0  0  0  0  0  0  0  0
   -8.6542    8.9716   -3.3521 H   0  0  0  0  0  0  0  0  0  0  0  0
  -10.4014    8.5545   -3.3521 H   0  0  0  0  0  0  0  0  0  0  0  0
  -10.0253    5.4200   -1.4571 H   0  0  0  0  0  0  0  0  0  0  0  0
  -11.2288    6.2343   -3.5868 H   0  0  0  0  0  0  0  0  0  0  0  0
  -12.1581    5.4281   -2.2174 H   0  0  0  0  0  0  0  0  0  0  0  0
  -13.3021    7.5266   -3.3253 H   0  0  0  0  0  0  0  0  0  0  0  0
  -10.9671    9.1061   -0.4357 H   0  0  0  0  0  0  0  0  0  0  0  0
  -13.2638    7.7405    1.0989 H   0  0  0  0  0  0  0  0  0  0  0  0
  -11.8529    8.6388    1.8154 H   0  0  0  0  0  0  0  0  0  0  0  0
  -13.9248    9.9898    1.8238 H   0  0  0  0  0  0  0  0  0  0  0  0
  -12.6171   10.7080    0.8038 H   0  0  0  0  0  0  0  0  0  0  0  0
  -14.7039   10.9036   -0.3658 H   0  0  0  0  0  0  0  0  0  0  0  0
  -15.8830    8.9450   -0.8740 H   0  0  0  0  0  0  0  0  0  0  0  0
  -12.3078   11.3408   -1.0804 H   0  0  0  0  0  0  0  0  0  0  0  0
  -11.7902   10.5239   -2.5941 H   0  0  0  0  0  0  0  0  0  0  0  0
  -13.2458   11.5766   -2.5941 H   0  0  0  0  0  0  0  0  0  0  0  0
  -15.6127    9.4503   -2.3042 H   0  0  0  0  0  0  0  0  0  0  0  0
  -14.5811   10.4450   -3.3872 H   0  0  0  0  0  0  0  0  0  0  0  0
  -14.4199    8.6560   -3.3872 H   0  0  0  0  0  0  0  0  0  0  0  0
  -11.5273    5.9885    1.6003 H   0  0  0  0  0  0  0  0  0  0  0  0
  -12.6694    5.9232    0.2153 H   0  0  0  0  0  0  0  0  0  0  0  0
  -11.1979    4.8930    0.2153 H   0  0  0  0  0  0  0  0  0  0  0  0
   -9.8955    8.0364    1.4827 H   0  0  0  0  0  0  0  0  0  0  0  0
   -9.2508    6.3400    1.1063 H   0  0  0  0  0  0  0  0  0  0  0  0
   -8.5387    8.9385   -0.2818 H   0  0  0  0  0  0  0  0  0  0  0  0
   -7.4855    7.8745    0.7308 H   0  0  0  0  0  0  0  0  0  0  0  0
   -7.5729    5.6063    0.3625 H   0  0  0  0  0  0  0  0  0  0  0  0
   -8.3247    4.9232   -1.1189 H   0  0  0  0  0  0  0  0  0  0  0  0
   -6.5849    5.3699   -1.1189 H   0  0  0  0  0  0  0  0  0  0  0  0
  1  2  1  0
  2  3  1  0
  3  4  1  0
  4  5  1  0
  5  6  1  0
  6  7  1  0
  7  8  1  0
  7  9  1  0
  2 10  1  0
 10 11  1  0
 11 12  1  0
 12 13  1  0
 13 14  1  6
 13 15  1  0
 15 16  1  0
 16 17  1  0
 17 18  2  0
 18 19  1  0
 19 20  1  0
 20 21  1  0
 21 22  1  0
 22 23  1  0
 22 24  1  0
 24 25  1  0
 24 26  1  0
 19 27  1  0
 27 28  1  1
 27 29  1  0
 29 30  1  0
 30 31  1  0
 31 32  1  1
  7  5  1  0
 31 10  1  0
 31 13  1  0
 27 15  1  0
 24 18  1  0
  1 33  1  0
  1 34  1  0
  1 35  1  0
  2 36  1  1
  3 37  1  0
  3 38  1  0
  4 39  1  0
  4 40  1  0
  5 41  1  6
  8 42  1  0
  8 43  1  0
  8 44  1  0
  9 45  1  0
  9 46  1  0
  9 47  1  0
 10 48  1  6
 11 49  1  0
 11 50  1  0
 12 51  1  0
 12 52  1  0
 14 53  1  0
 14 54  1  0
 14 55  1  0
 15 56  1  1
 16 57  1  0
 16 58  1  0
 17 59  1  0
 19 60  1  6
 20 61  1  0
 20 62  1  0
 21 63  1  0
 21 64  1  0
 22 65  1  6
 23 66  1  0
 25 67  1  0
 25 68  1  0
 25 69  1  0
 26 70  1  0
 26 71  1  0
 26 72  1  0
 28 73  1  0
 28 74  1  0
 28 75  1  0
 29 76  1  0
 29 77  1  0
 30 78  1  0
 30 79  1  0
 32 80  1  0
 32 81  1  0
 32 82  1  0
M  END
>  <meeko>  (6) 
{"is_sidechain": [false], "intermolecular_energy": 2.731, "internal_energy": -0.839}

$$$$
EPH_relaxed_0001_pdb2pqr_Repair_222_r2_0001_out
     RDKit          3D

 82 86  0  0  0  0  0  0  0  0999 V2000
   -1.9220   14.8310    0.2710 C   0  0  0  0  0  0  0  0  0  0  0  0
   -0.6930   15.0680    1.1520 C   0  0  2  0  0  0  0  0  0  0  0  0
   -0.2180   16.5350    1.1040 C   0  0  0  0  0  0  0  0  0  0  0  0
   -1.3170   17.5240    0.7080 C   0  0  0  0  0  0  0  0  0  0  0  0
   -0.8760   18.4260   -0.4050 C   0  0  2  0  0  0  0  0  0  0  0  0
   -0.4880   19.7420    0.0090 O   0  0  0  0  0  0  0  0  0  0  0  0
   -1.6470   19.6590   -0.8370 C   0  0  0  0  0  0  0  0  0  0  0  0
   -2.9220   20.0590   -0.1640 C   0  0  0  0  0  0  0  0  0  0  0  0
   -1.4240   20.1940   -2.2180 C   0  0  0  0  0  0  0  0  0  0  0  0
    0.4390   14.1400    0.7280 C   0  0  1  0  0  0  0  0  0  0  0  0
    0.7960   13.0950    1.8180 C   0  0  0  0  0  0  0  0  0  0  0  0
    1.1990   11.7940    1.0760 C   0  0  0  0  0  0  0  0  0  0  0  0
    1.3820   12.2270   -0.3980 C   0  0  1  0  0  0  0  0  0  0  0  0
    2.8100   12.8530   -0.4580 C   0  0  0  0  0  0  0  0  0  0  0  0
    1.1960   11.1080   -1.4740 C   0  0  2  0  0  0  0  0  0  0  0  0
    2.2010    9.9470   -1.3880 C   0  0  0  0  0  0  0  0  0  0  0  0
    3.4480   10.1210   -2.1910 C   0  0  0  0  0  0  0  0  0  0  0  0
    3.6280   11.0280   -3.1690 C   0  0  0  0  0  0  0  0  0  0  0  0
    2.4780   11.9370   -3.6220 C   0  0  1  0  0  0  0  0  0  0  0  0
    2.4130   11.9570   -5.1710 C   0  0  0  0  0  0  0  0  0  0  0  0
    3.7450   12.3410   -5.8080 C   0  0  0  0  0  0  0  0  0  0  0  0
    4.8520   11.3800   -5.3790 C   0  0  2  0  0  0  0  0  0  0  0  0
    4.5780   10.0870   -5.9290 O   0  0  0  0  0  0  0  0  0  0  0  0
    5.0040   11.2700   -3.8360 C   0  0  0  0  0  0  0  0  0  0  0  0
    5.5920   12.5890   -3.2760 C   0  0  0  0  0  0  0  0  0  0  0  0
    6.0540   10.1660   -3.5380 C   0  0  0  0  0  0  0  0  0  0  0  0
    1.0640   11.6490   -2.9550 C   0  0  1  0  0  0  0  0  0  0  0  0
    0.3070   10.5520   -3.7650 C   0  0  0  0  0  0  0  0  0  0  0  0
    0.1820   12.9510   -3.0400 C   0  0  0  0  0  0  0  0  0  0  0  0
    0.3220   13.9620   -1.8860 C   0  0  0  0  0  0  0  0  0  0  0  0
    0.2060   13.2630   -0.5280 C   0  0  2  0  0  0  0  0  0  0  0  0
   -1.2290   12.6420   -0.4300 C   0  0  0  0  0  0  0  0  0  0  0  0
   -2.8025   14.6612    0.9080 H   0  0  0  0  0  0  0  0  0  0  0  0
   -2.0934   15.7126   -0.3641 H   0  0  0  0  0  0  0  0  0  0  0  0
   -1.7533   13.9488   -0.3641 H   0  0  0  0  0  0  0  0  0  0  0  0
   -0.9836   14.8485    2.1900 H   0  0  0  0  0  0  0  0  0  0  0  0
    0.1559   16.8119    2.1007 H   0  0  0  0  0  0  0  0  0  0  0  0
    0.5629   16.5954    0.3316 H   0  0  0  0  0  0  0  0  0  0  0  0
   -2.2028   16.9602    0.3802 H   0  0  0  0  0  0  0  0  0  0  0  0
   -1.5488   18.1479    1.5838 H   0  0  0  0  0  0  0  0  0  0  0  0
   -0.4739   17.5719   -0.9697 H   0  0  0  0  0  0  0  0  0  0  0  0
   -2.7894   20.0174    0.9272 H   0  0  0  0  0  0  0  0  0  0  0  0
   -3.1882   21.0838   -0.4622 H   0  0  0  0  0  0  0  0  0  0  0  0
   -3.7259   19.3699   -0.4622 H   0  0  0  0  0  0  0  0  0  0  0  0
   -1.0015   21.2076   -2.1547 H   0  0  0  0  0  0  0  0  0  0  0  0
   -0.7244   19.5381   -2.7568 H   0  0  0  0  0  0  0  0  0  0  0  0
   -2.3824   20.2292   -2.7568 H   0  0  0  0  0  0  0  0  0  0  0  0
    1.2227   14.8852    0.5269 H   0  0  0  0  0  0  0  0  0  0  0  0
    1.6352   13.4575    2.4299 H   0  0  0  0  0  0  0  0  0  0  0  0
   -0.0567   12.9183    2.4900 H   0  0  0  0  0  0  0  0  0  0  0  0
    2.1384   11.3904    1.4818 H   0  0  0  0  0  0  0  0  0  0  0  0
    0.4463   10.9997    1.1874 H   0  0  0  0  0  0  0  0  0  0  0  0
    3.1821   13.0161    0.5642 H   0  0  0  0  0  0  0  0  0  0  0  0
    3.4879   12.1695   -0.9903 H   0  0  0  0  0  0  0  0  0  0  0  0
    2.7667   13.8147   -0.9903 H   0  0  0  0  0  0  0  0  0  0  0  0
    0.2201   10.6792   -1.2022 H   0  0  0  0  0  0  0  0  0  0  0  0
    2.4901    9.8253   -0.3337 H   0  0  0  0  0  0  0  0  0  0  0  0
    1.6884    9.0694   -1.8089 H   0  0  0  0  0  0  0  0  0  0  0  0
    4.2906    9.4513   -1.9640 H   0  0  0  0  0  0  0  0  0  0  0  0
    2.7184   12.9425   -3.2463 H   0  0  0  0  0  0  0  0  0  0  0  0
    2.1289   10.9550   -5.5249 H   0  0  0  0  0  0  0  0  0  0  0  0
    1.6720   12.7153   -5.4641 H   0  0  0  0  0  0  0  0  0  0  0  0
    3.6435   12.3076   -6.9028 H   0  0  0  0  0  0  0  0  0  0  0  0
    4.0129   13.3554   -5.4775 H   0  0  0  0  0  0  0  0  0  0  0  0
    5.8030   11.7807   -5.7597 H   0  0  0  0  0  0  0  0  0  0  0  0
    4.3220    9.5040   -5.1950 H   0  0  0  0  0  0  0  0  0  0  0  0
    5.5785   12.5588   -2.1765 H   0  0  0  0  0  0  0  0  0  0  0  0
    6.6279   12.7068   -3.6269 H   0  0  0  0  0  0  0  0  0  0  0  0
    4.9872   13.4382   -3.6269 H   0  0  0  0  0  0  0  0  0  0  0  0
    6.1648   10.0495   -2.4498 H   0  0  0  0  0  0  0  0  0  0  0  0
    5.7198    9.2142   -3.9765 H   0  0  0  0  0  0  0  0  0  0  0  0
    7.0214   10.4521   -3.9765 H   0  0  0  0  0  0  0  0  0  0  0  0
   -0.1769    9.8508   -3.0692 H   0  0  0  0  0  0  0  0  0  0  0  0
   -0.4572   11.0259   -4.3986 H   0  0  0  0  0  0  0  0  0  0  0  0
    1.0212   10.0056   -4.3986 H   0  0  0  0  0  0  0  0  0  0  0  0
    0.4463   13.4716   -3.9723 H   0  0  0  0  0  0  0  0  0  0  0  0
   -0.8584   12.5975   -2.9881 H   0  0  0  0  0  0  0  0  0  0  0  0
    1.3037   14.4534   -1.9551 H   0  0  0  0  0  0  0  0  0  0  0  0
   -0.4863   14.7035   -1.9691 H   0  0  0  0  0  0  0  0  0  0  0  0
   -1.5053   12.5224    0.6280 H   0  0  0  0  0  0  0  0  0  0  0  0
   -1.9513   13.3081   -0.9246 H   0  0  0  0  0  0  0  0  0  0  0  0
   -1.2379   11.6595   -0.9246 H   0  0  0  0  0  0  0  0  0  0  0  0
  1  2  1  0
  2  3  1  0
  3  4  1  0
  4  5  1  0
  5  6  1  0
  6  7  1  0
  7  8  1  0
  7  9  1  0
  2 10  1  0
 10 11  1  0
 11 12  1  0
 12 13  1  0
 13 14  1  1
 13 15  1  0
 15 16  1  0
 16 17  1  0
 17 18  2  0
 18 19  1  0
 19 20  1  0
 20 21  1  0
 21 22  1  0
 22 23  1  0
 22 24  1  0
 24 25  1  0
 24 26  1  0
 19 27  1  0
 27 28  1  6
 27 29  1  0
 29 30  1  0
 30 31  1  0
 31 32  1  1
  7  5  1  0
 31 10  1  0
 31 13  1  0
 27 15  1  0
 24 18  1  0
  1 33  1  0
  1 34  1  0
  1 35  1  0
  2 36  1  1
  3 37  1  0
  3 38  1  0
  4 39  1  0
  4 40  1  0
  5 41  1  6
  8 42  1  0
  8 43  1  0
  8 44  1  0
  9 45  1  0
  9 46  1  0
  9 47  1  0
 10 48  1  6
 11 49  1  0
 11 50  1  0
 12 51  1  0
 12 52  1  0
 14 53  1  0
 14 54  1  0
 14 55  1  0
 15 56  1  1
 16 57  1  0
 16 58  1  0
 17 59  1  0
 19 60  1  1
 20 61  1  0
 20 62  1  0
 21 63  1  0
 21 64  1  0
 22 65  1  6
 23 66  1  0
 25 67  1  0
 25 68  1  0
 25 69  1  0
 26 70  1  0
 26 71  1  0
 26 72  1  0
 28 73  1  0
 28 74  1  0
 28 75  1  0
 29 76  1  0
 29 77  1  0
 30 78  1  0
 30 79  1  0
 32 80  1  0
 32 81  1  0
 32 82  1  0
M  END
>  <meeko>  (7) 
{"is_sidechain": [false], "intermolecular_energy": 2.731, "internal_energy": -0.839}

$$$$
EPH_relaxed_0001_pdb2pqr_Repair_222_r2_0001_out
     RDKit          3D

 82 86  0  0  0  0  0  0  0  0999 V2000
   -0.2960   15.1130   -7.6170 C   0  0  0  0  0  0  0  0  0  0  0  0
    1.0820   15.0840   -6.9500 C   0  0  2  0  0  0  0  0  0  0  0  0
    2.2280   15.1680   -7.9780 C   0  0  0  0  0  0  0  0  0  0  0  0
    2.2570   16.4840   -8.7610 C   0  0  0  0  0  0  0  0  0  0  0  0
    1.8540   16.2870  -10.1910 C   0  0  2  0  0  0  0  0  0  0  0  0
    1.1920   15.0450  -10.4610 O   0  0  0  0  0  0  0  0  0  0  0  0
    2.4670   15.2350  -11.0960 C   0  0  0  0  0  0  0  0  0  0  0  0
    3.5350   14.3100  -10.6040 C   0  0  0  0  0  0  0  0  0  0  0  0
    2.3790   15.4270  -12.5780 C   0  0  0  0  0  0  0  0  0  0  0  0
    1.2270   13.8190   -6.1120 C   0  0  1  0  0  0  0  0  0  0  0  0
    2.6590   13.2230   -6.1710 C   0  0  0  0  0  0  0  0  0  0  0  0
    2.9500   12.6190   -4.7740 C   0  0  0  0  0  0  0  0  0  0  0  0
    1.5750   12.5880   -4.0670 C   0  0  1  0  0  0  0  0  0  0  0  0
    0.8710   11.3060   -4.6140 C   0  0  0  0  0  0  0  0  0  0  0  0
    1.6000   12.6100   -2.5040 C   0  0  2  0  0  0  0  0  0  0  0  0
    2.2890   11.4030   -1.8450 C   0  0  0  0  0  0  0  0  0  0  0  0
    1.3930   10.2490   -1.5350 C   0  0  0  0  0  0  0  0  0  0  0  0
    0.0480   10.2870   -1.5110 C   0  0  0  0  0  0  0  0  0  0  0  0
   -0.7060   11.6070   -1.7190 C   0  0  1  0  0  0  0  0  0  0  0  0
   -1.8140   11.7450   -0.6420 C   0  0  0  0  0  0  0  0  0  0  0  0
   -2.7480   10.5390   -0.6050 C   0  0  0  0  0  0  0  0  0  0  0  0
   -1.9680    9.2540   -0.3380 C   0  0  2  0  0  0  0  0  0  0  0  0
   -1.4350    9.3060    0.9890 O   0  0  0  0  0  0  0  0  0  0  0  0
   -0.8180    9.0130   -1.3550 C   0  0  0  0  0  0  0  0  0  0  0  0
   -1.4130    8.6580   -2.7390 C   0  0  0  0  0  0  0  0  0  0  0  0
   -0.0240    7.7620   -0.8900 C   0  0  0  0  0  0  0  0  0  0  0  0
    0.1960   12.9100   -1.8370 C   0  0  1  0  0  0  0  0  0  0  0  0
    0.4910   13.4840   -0.4180 C   0  0  0  0  0  0  0  0  0  0  0  0
   -0.6070   14.0230   -2.6090 C   0  0  0  0  0  0  0  0  0  0  0  0
   -0.4960   14.0210   -4.1450 C   0  0  0  0  0  0  0  0  0  0  0  0
    0.9680   13.9410   -4.5890 C   0  0  2  0  0  0  0  0  0  0  0  0
    1.6950   15.2290   -4.0720 C   0  0  0  0  0  0  0  0  0  0  0  0
   -1.0776   15.1294   -6.8432 H   0  0  0  0  0  0  0  0  0  0  0  0
   -0.3813   16.0131   -8.2435 H   0  0  0  0  0  0  0  0  0  0  0  0
   -0.4190   14.2172   -8.2435 H   0  0  0  0  0  0  0  0  0  0  0  0
    1.1541   15.9703   -6.3025 H   0  0  0  0  0  0  0  0  0  0  0  0
    3.1831   15.0611   -7.4429 H   0  0  0  0  0  0  0  0  0  0  0  0
    2.0641   14.3624   -8.7089 H   0  0  0  0  0  0  0  0  0  0  0  0
    1.5624   17.1948   -8.2895 H   0  0  0  0  0  0  0  0  0  0  0  0
    3.2869   16.8700   -8.7450 H   0  0  0  0  0  0  0  0  0  0  0  0
    1.6944   17.3678  -10.3190 H   0  0  0  0  0  0  0  0  0  0  0  0
    3.5389   14.3066   -9.5040 H   0  0  0  0  0  0  0  0  0  0  0  0
    3.3376   13.2927  -10.9731 H   0  0  0  0  0  0  0  0  0  0  0  0
    4.5137   14.6506  -10.9731 H   0  0  0  0  0  0  0  0  0  0  0  0
    1.9297   16.4074  -12.7947 H   0  0  0  0  0  0  0  0  0  0  0  0
    3.3878   15.3816  -13.0142 H   0  0  0  0  0  0  0  0  0  0  0  0
    1.7549   14.6331  -13.0142 H   0  0  0  0  0  0  0  0  0  0  0  0
    0.4471   13.1993   -6.5786 H   0  0  0  0  0  0  0  0  0  0  0  0
    2.7116   12.4392   -6.9410 H   0  0  0  0  0  0  0  0  0  0  0  0
    3.3981   13.9959   -6.4288 H   0  0  0  0  0  0  0  0  0  0  0  0
    3.3609   11.6030   -4.8684 H   0  0  0  0  0  0  0  0  0  0  0  0
    3.6936   13.2046   -4.2135 H   0  0  0  0  0  0  0  0  0  0  0  0
    0.5308   10.6865   -3.7711 H   0  0  0  0  0  0  0  0  0  0  0  0
    0.0059   11.5965   -5.2281 H   0  0  0  0  0  0  0  0  0  0  0  0
    1.5804   10.7319   -5.2281 H   0  0  0  0  0  0  0  0  0  0  0  0
    2.2457   13.4747   -2.2911 H   0  0  0  0  0  0  0  0  0  0  0  0
    3.0774   11.0483   -2.5252 H   0  0  0  0  0  0  0  0  0  0  0  0
    2.6708   11.7609   -0.8774 H   0  0  0  0  0  0  0  0  0  0  0  0
    1.8733    9.2861   -1.3069 H   0  0  0  0  0  0  0  0  0  0  0  0
   -1.1619   11.5428   -2.7180 H   0  0  0  0  0  0  0  0  0  0  0  0
   -1.3366   11.8516    0.3433 H   0  0  0  0  0  0  0  0  0  0  0  0
   -2.4188   12.6278   -0.8966 H   0  0  0  0  0  0  0  0  0  0  0  0
   -3.4901   10.6825    0.1942 H   0  0  0  0  0  0  0  0  0  0  0  0
   -3.2471   10.4508   -1.5813 H   0  0  0  0  0  0  0  0  0  0  0  0
   -2.6678    8.4130   -0.4520 H   0  0  0  0  0  0  0  0  0  0  0  0
   -0.8070    8.5700    1.0830 H   0  0  0  0  0  0  0  0  0  0  0  0
   -2.3504    8.0987   -2.6026 H   0  0  0  0  0  0  0  0  0  0  0  0
   -1.6159    9.5828   -3.2990 H   0  0  0  0  0  0  0  0  0  0  0  0
   -0.6956    8.0402   -3.2990 H   0  0  0  0  0  0  0  0  0  0  0  0
   -0.0029    7.7288    0.2093 H   0  0  0  0  0  0  0  0  0  0  0  0
   -0.5116    6.8542   -1.2750 H   0  0  0  0  0  0  0  0  0  0  0  0
    1.0050    7.8168   -1.2750 H   0  0  0  0  0  0  0  0  0  0  0  0
    0.1289   12.7794    0.3451 H   0  0  0  0  0  0  0  0  0  0  0  0
    1.5750   13.6283   -0.2989 H   0  0  0  0  0  0  0  0  0  0  0  0
   -0.0227   14.4494   -0.2989 H   0  0  0  0  0  0  0  0  0  0  0  0
   -1.6700   13.9048   -2.3522 H   0  0  0  0  0  0  0  0  0  0  0  0
   -0.1583   14.9751   -2.2895 H   0  0  0  0  0  0  0  0  0  0  0  0
   -1.0410   13.1528   -4.5440 H   0  0  0  0  0  0  0  0  0  0  0  0
   -0.9283   14.9568   -4.5290 H   0  0  0  0  0  0  0  0  0  0  0  0
    1.6969   15.2324   -2.9720 H   0  0  0  0  0  0  0  0  0  0  0  0
    2.7314   15.2380   -4.4405 H   0  0  0  0  0  0  0  0  0  0  0  0
    1.1671   16.1209   -4.4405 H   0  0  0  0  0  0  0  0  0  0  0  0
  1  2  1  0
  2  3  1  0
  3  4  1  0
  4  5  1  0
  5  6  1  0
  6  7  1  0
  7  8  1  0
  7  9  1  0
  2 10  1  0
 10 11  1  0
 11 12  1  0
 12 13  1  0
 13 14  1  1
 13 15  1  0
 15 16  1  0
 16 17  1  0
 17 18  2  0
 18 19  1  0
 19 20  1  0
 20 21  1  0
 21 22  1  0
 22 23  1  0
 22 24  1  0
 24 25  1  0
 24 26  1  0
 19 27  1  0
 27 28  1  1
 27 29  1  0
 29 30  1  0
 30 31  1  0
 31 32  1  1
  7  5  1  0
 31 10  1  0
 31 13  1  0
 27 15  1  0
 24 18  1  0
  1 33  1  0
  1 34  1  0
  1 35  1  0
  2 36  1  1
  3 37  1  0
  3 38  1  0
  4 39  1  0
  4 40  1  0
  5 41  1  6
  8 42  1  0
  8 43  1  0
  8 44  1  0
  9 45  1  0
  9 46  1  0
  9 47  1  0
 10 48  1  6
 11 49  1  0
 11 50  1  0
 12 51  1  0
 12 52  1  0
 14 53  1  0
 14 54  1  0
 14 55  1  0
 15 56  1  6
 16 57  1  0
 16 58  1  0
 17 59  1  0
 19 60  1  6
 20 61  1  0
 20 62  1  0
 21 63  1  0
 21 64  1  0
 22 65  1  1
 23 66  1  0
 25 67  1  0
 25 68  1  0
 25 69  1  0
 26 70  1  0
 26 71  1  0
 26 72  1  0
 28 73  1  0
 28 74  1  0
 28 75  1  0
 29 76  1  0
 29 77  1  0
 30 78  1  0
 30 79  1  0
 32 80  1  0
 32 81  1  0
 32 82  1  0
M  END
>  <meeko>  (8) 
{"is_sidechain": [false], "intermolecular_energy": 2.731, "internal_energy": -0.839}

$$$$
EPH_relaxed_0001_pdb2pqr_Repair_222_r2_0001_out
     RDKit          3D

 82 86  0  0  0  0  0  0  0  0999 V2000
   -2.2550    7.8490   -2.0980 C   0  0  0  0  0  0  0  0  0  0  0  0
   -2.2090    8.4740   -0.7010 C   0  0  2  0  0  0  0  0  0  0  0  0
   -3.5910    8.4690   -0.0170 C   0  0  0  0  0  0  0  0  0  0  0  0
   -4.7630    8.5540   -0.9980 C   0  0  0  0  0  0  0  0  0  0  0  0
   -5.5360    7.2700   -1.0500 C   0  0  2  0  0  0  0  0  0  0  0  0
   -5.6400    6.6870   -2.3560 O   0  0  0  0  0  0  0  0  0  0  0  0
   -6.8700    7.1250   -1.7570 C   0  0  0  0  0  0  0  0  0  0  0  0
   -7.5110    8.2810   -2.4590 C   0  0  0  0  0  0  0  0  0  0  0  0
   -7.7770    6.0050   -1.3520 C   0  0  0  0  0  0  0  0  0  0  0  0
   -1.6740    9.8980   -0.7850 C   0  0  1  0  0  0  0  0  0  0  0  0
   -1.2160   10.4470    0.5920 C   0  0  0  0  0  0  0  0  0  0  0  0
    0.0080   11.3610    0.3250 C   0  0  0  0  0  0  0  0  0  0  0  0
    0.0100   11.5720   -1.2070 C   0  0  1  0  0  0  0  0  0  0  0  0
   -1.0430   12.6970   -1.4580 C   0  0  0  0  0  0  0  0  0  0  0  0
    1.3900   11.9180   -1.8550 C   0  0  2  0  0  0  0  0  0  0  0  0
    2.0210   13.2390   -1.3810 C   0  0  0  0  0  0  0  0  0  0  0  0
    1.6580   14.4430   -2.1860 C   0  0  0  0  0  0  0  0  0  0  0  0
    1.0920   14.4270   -3.4070 C   0  0  0  0  0  0  0  0  0  0  0  0
    0.8490   13.1040   -4.1450 C   0  0  1  0  0  0  0  0  0  0  0  0
    1.3280   13.2350   -5.6140 C   0  0  0  0  0  0  0  0  0  0  0  0
    0.6990   14.4260   -6.3300 C   0  0  0  0  0  0  0  0  0  0  0  0
    1.0120   15.7290   -5.5990 C   0  0  2  0  0  0  0  0  0  0  0  0
    2.4170   15.9850   -5.6930 O   0  0  0  0  0  0  0  0  0  0  0  0
    0.5830   15.7110   -4.1050 C   0  0  0  0  0  0  0  0  0  0  0  0
   -0.9630   15.7380   -4.0070 C   0  0  0  0  0  0  0  0  0  0  0  0
    1.0820   17.0270   -3.4500 C   0  0  0  0  0  0  0  0  0  0  0  0
    1.4140   11.7990   -3.4330 C   0  0  1  0  0  0  0  0  0  0  0  0
    2.9010   11.5720   -3.8400 C   0  0  0  0  0  0  0  0  0  0  0  0
    0.6150   10.5450   -3.9500 C   0  0  0  0  0  0  0  0  0  0  0  0
   -0.6780   10.1840   -3.1940 C   0  0  0  0  0  0  0  0  0  0  0  0
   -0.4350   10.1410   -1.6820 C   0  0  2  0  0  0  0  0  0  0  0  0
    0.6040    9.0030   -1.3970 C   0  0  0  0  0  0  0  0  0  0  0  0
   -2.3355    6.7556   -2.0081 H   0  0  0  0  0  0  0  0  0  0  0  0
   -3.1270    8.2371   -2.6448 H   0  0  0  0  0  0  0  0  0  0  0  0
   -1.3356    8.1052   -2.6448 H   0  0  0  0  0  0  0  0  0  0  0  0
   -1.5343    7.8601   -0.0863 H   0  0  0  0  0  0  0  0  0  0  0  0
   -3.6889    7.5385    0.5614 H   0  0  0  0  0  0  0  0  0  0  0  0
   -3.6383    9.3652    0.6190 H   0  0  0  0  0  0  0  0  0  0  0  0
   -5.4367    9.3632   -0.6796 H   0  0  0  0  0  0  0  0  0  0  0  0
   -4.3573    8.7513   -2.0012 H   0  0  0  0  0  0  0  0  0  0  0  0
   -5.2060    7.0024   -0.0354 H   0  0  0  0  0  0  0  0  0  0  0  0
   -7.9039    8.9896   -1.7150 H   0  0  0  0  0  0  0  0  0  0  0  0
   -6.7646    8.7870   -3.0890 H   0  0  0  0  0  0  0  0  0  0  0  0
   -8.3356    7.9160   -3.0890 H   0  0  0  0  0  0  0  0  0  0  0  0
   -7.8226    5.9487   -0.2544 H   0  0  0  0  0  0  0  0  0  0  0  0
   -8.7854    6.1869   -1.7520 H   0  0  0  0  0  0  0  0  0  0  0  0
   -7.3895    5.0564   -1.7520 H   0  0  0  0  0  0  0  0  0  0  0  0
   -2.5538   10.3993   -1.2148 H   0  0  0  0  0  0  0  0  0  0  0  0
   -2.0270   11.0264    1.0575 H   0  0  0  0  0  0  0  0  0  0  0  0
   -0.9544    9.6269    1.2768 H   0  0  0  0  0  0  0  0  0  0  0  0
   -0.1029   12.3217    0.8492 H   0  0  0  0  0  0  0  0  0  0  0  0
    0.9472   10.9168    0.6863 H   0  0  0  0  0  0  0  0  0  0  0  0
   -1.4042   13.0829   -0.4933 H   0  0  0  0  0  0  0  0  0  0  0  0
   -0.5776   13.5141   -2.0287 H   0  0  0  0  0  0  0  0  0  0  0  0
   -1.8891   12.2866   -2.0287 H   0  0  0  0  0  0  0  0  0  0  0  0
    2.0394   11.1203   -1.4653 H   0  0  0  0  0  0  0  0  0  0  0  0
    1.7021   13.4151   -0.3431 H   0  0  0  0  0  0  0  0  0  0  0  0
    3.1083   13.1145   -1.4921 H   0  0  0  0  0  0  0  0  0  0  0  0
    1.8714   15.4271   -1.7433 H   0  0  0  0  0  0  0  0  0  0  0  0
   -0.2380   12.9372   -4.1204 H   0  0  0  0  0  0  0  0  0  0  0  0
    2.4211   13.3577   -5.6189 H   0  0  0  0  0  0  0  0  0  0  0  0
    1.0206   12.3238   -6.1481 H   0  0  0  0  0  0  0  0  0  0  0  0
    1.0980   14.4826   -7.3535 H   0  0  0  0  0  0  0  0  0  0  0  0
   -0.3921   14.2877   -6.3498 H   0  0  0  0  0  0  0  0  0  0  0  0
    0.4299   16.5269   -6.0833 H   0  0  0  0  0  0  0  0  0  0  0  0
    2.8660   15.3900   -5.0690 H   0  0  0  0  0  0  0  0  0  0  0  0
   -1.2633   15.7432   -2.9488 H   0  0  0  0  0  0  0  0  0  0  0  0
   -1.3460   16.6430   -4.5013 H   0  0  0  0  0  0  0  0  0  0  0  0
   -1.3774   14.8470   -4.5013 H   0  0  0  0  0  0  0  0  0  0  0  0
    1.0447   16.9287   -2.3550 H   0  0  0  0  0  0  0  0  0  0  0  0
    2.1172   17.2240   -3.7654 H   0  0  0  0  0  0  0  0  0  0  0  0
    0.4376   17.8608   -3.7654 H   0  0  0  0  0  0  0  0  0  0  0  0
    3.5186   11.4777   -2.9347 H   0  0  0  0  0  0  0  0  0  0  0  0
    2.9815   10.6512   -4.4363 H   0  0  0  0  0  0  0  0  0  0  0  0
    3.2525   12.4269   -4.4363 H   0  0  0  0  0  0  0  0  0  0  0  0
    0.3452   10.7322   -4.9998 H   0  0  0  0  0  0  0  0  0  0  0  0
    1.2886    9.6898   -3.7920 H   0  0  0  0  0  0  0  0  0  0  0  0
   -1.4463   10.9399   -3.4137 H   0  0  0  0  0  0  0  0  0  0  0  0
   -1.0114    9.1891   -3.5242 H   0  0  0  0  0  0  0  0  0  0  0  0
    0.7199    8.8760   -0.3105 H   0  0  0  0  0  0  0  0  0  0  0  0
    0.2474    8.0615   -1.8402 H   0  0  0  0  0  0  0  0  0  0  0  0
    1.5740    9.2727   -1.8402 H   0  0  0  0  0  0  0  0  0  0  0  0
  1  2  1  0
  2  3  1  0
  3  4  1  0
  4  5  1  0
  5  6  1  0
  6  7  1  0
  7  8  1  0
  7  9  1  0
  2 10  1  0
 10 11  1  0
 11 12  1  0
 12 13  1  0
 13 14  1  1
 13 15  1  0
 15 16  1  0
 16 17  1  0
 17 18  2  0
 18 19  1  0
 19 20  1  0
 20 21  1  0
 21 22  1  0
 22 23  1  0
 22 24  1  0
 24 25  1  0
 24 26  1  0
 19 27  1  0
 27 28  1  6
 27 29  1  0
 29 30  1  0
 30 31  1  0
 31 32  1  6
  7  5  1  0
 31 10  1  0
 31 13  1  0
 27 15  1  0
 24 18  1  0
  1 33  1  0
  1 34  1  0
  1 35  1  0
  2 36  1  1
  3 37  1  0
  3 38  1  0
  4 39  1  0
  4 40  1  0
  5 41  1  1
  8 42  1  0
  8 43  1  0
  8 44  1  0
  9 45  1  0
  9 46  1  0
  9 47  1  0
 10 48  1  6
 11 49  1  0
 11 50  1  0
 12 51  1  0
 12 52  1  0
 14 53  1  0
 14 54  1  0
 14 55  1  0
 15 56  1  1
 16 57  1  0
 16 58  1  0
 17 59  1  0
 19 60  1  6
 20 61  1  0
 20 62  1  0
 21 63  1  0
 21 64  1  0
 22 65  1  6
 23 66  1  0
 25 67  1  0
 25 68  1  0
 25 69  1  0
 26 70  1  0
 26 71  1  0
 26 72  1  0
 28 73  1  0
 28 74  1  0
 28 75  1  0
 29 76  1  0
 29 77  1  0
 30 78  1  0
 30 79  1  0
 32 80  1  0
 32 81  1  0
 32 82  1  0
M  END
>  <meeko>  (9) 
{"is_sidechain": [false], "intermolecular_energy": 2.731, "internal_energy": -0.839}

$$$$
EPH_relaxed_0001_pdb2pqr_Repair_222_r2_0001_out
     RDKit          3D

 82 86  0  0  0  0  0  0  0  0999 V2000
   -3.6890    7.0490   -3.4120 C   0  0  0  0  0  0  0  0  0  0  0  0
   -3.7710    7.1710   -1.8880 C   0  0  2  0  0  0  0  0  0  0  0  0
   -5.2030    6.9430   -1.3630 C   0  0  0  0  0  0  0  0  0  0  0  0
   -6.2950    7.3650   -2.3500 C   0  0  0  0  0  0  0  0  0  0  0  0
   -7.6190    7.5410   -1.6690 C   0  0  2  0  0  0  0  0  0  0  0  0
   -8.1590    6.3440   -1.0930 O   0  0  0  0  0  0  0  0  0  0  0  0
   -8.9080    6.9200   -2.1750 C   0  0  0  0  0  0  0  0  0  0  0  0
   -8.9350    6.0780   -3.4120 C   0  0  0  0  0  0  0  0  0  0  0  0
  -10.2080    7.5280   -1.7520 C   0  0  0  0  0  0  0  0  0  0  0  0
   -3.2670    8.5400   -1.4490 C   0  0  1  0  0  0  0  0  0  0  0  0
   -3.8990    9.0090   -0.1110 C   0  0  0  0  0  0  0  0  0  0  0  0
   -2.8070    9.8090    0.6440 C   0  0  0  0  0  0  0  0  0  0  0  0
   -1.7050   10.0580   -0.4120 C   0  0  1  0  0  0  0  0  0  0  0  0
   -2.2100   11.2830   -1.2370 C   0  0  0  0  0  0  0  0  0  0  0  0
   -0.2600   10.2880    0.1380 C   0  0  2  0  0  0  0  0  0  0  0  0
   -0.0910   11.5310    1.0280 C   0  0  0  0  0  0  0  0  0  0  0  0
    0.2860   12.7840    0.3090 C   0  0  0  0  0  0  0  0  0  0  0  0
    0.7570   12.8520   -0.9500 C   0  0  0  0  0  0  0  0  0  0  0  0
    1.0470   11.5770   -1.7520 C   0  0  1  0  0  0  0  0  0  0  0  0
    2.4350   11.6990   -2.4350 C   0  0  0  0  0  0  0  0  0  0  0  0
    2.5610   12.9620   -3.2810 C   0  0  0  0  0  0  0  0  0  0  0  0
    2.3230   14.2110   -2.4360 C   0  0  2  0  0  0  0  0  0  0  0  0
    3.3880   14.3350   -1.4870 O   0  0  0  0  0  0  0  0  0  0  0  0
    0.9590   14.1960   -1.6920 C   0  0  0  0  0  0  0  0  0  0  0  0
   -0.1930   14.3660   -2.7130 C   0  0  0  0  0  0  0  0  0  0  0  0
    0.9060   15.4420   -0.7670 C   0  0  0  0  0  0  0  0  0  0  0  0
    0.8730   10.2080   -0.9640 C   0  0  1  0  0  0  0  0  0  0  0  0
    2.1950    9.8510   -0.2180 C   0  0  0  0  0  0  0  0  0  0  0  0
    0.6210    9.0480   -1.9980 C   0  0  0  0  0  0  0  0  0  0  0  0
   -0.8410    8.7910   -2.4120 C   0  0  0  0  0  0  0  0  0  0  0  0
   -1.7480    8.6870   -1.1820 C   0  0  2  0  0  0  0  0  0  0  0  0
   -1.2780    7.4500   -0.3440 C   0  0  0  0  0  0  0  0  0  0  0  0
   -3.0935    6.1630   -3.6774 H   0  0  0  0  0  0  0  0  0  0  0  0
   -4.7027    6.9471   -3.8268 H   0  0  0  0  0  0  0  0  0  0  0  0
   -3.2119    7.9492   -3.8268 H   0  0  0  0  0  0  0  0  0  0  0  0
   -3.1333    6.3845   -1.4582 H   0  0  0  0  0  0  0  0  0  0  0  0
   -5.3267    5.8718   -1.1454 H   0  0  0  0  0  0  0  0  0  0  0  0
   -5.3203    7.5697   -0.4666 H   0  0  0  0  0  0  0  0  0  0  0  0
   -6.0048    8.3177   -2.8171 H   0  0  0  0  0  0  0  0  0  0  0  0
   -6.4002    6.5721   -3.1052 H   0  0  0  0  0  0  0  0  0  0  0  0
   -7.3600    8.5695   -1.3774 H   0  0  0  0  0  0  0  0  0  0  0  0
   -8.9691    5.0150   -3.1313 H   0  0  0  0  0  0  0  0  0  0  0  0
   -9.8256    6.3289   -4.0069 H   0  0  0  0  0  0  0  0  0  0  0  0
   -8.0302    6.2713   -4.0069 H   0  0  0  0  0  0  0  0  0  0  0  0
  -10.2610    7.5528   -0.6536 H   0  0  0  0  0  0  0  0  0  0  0  0
  -10.2789    8.5527   -2.1457 H   0  0  0  0  0  0  0  0  0  0  0  0
  -11.0399    6.9255   -2.1457 H   0  0  0  0  0  0  0  0  0  0  0  0
   -3.5535    9.1325   -2.3304 H   0  0  0  0  0  0  0  0  0  0  0  0
   -4.7703    9.6508   -0.3082 H   0  0  0  0  0  0  0  0  0  0  0  0
   -4.2428    8.1509    0.4852 H   0  0  0  0  0  0  0  0  0  0  0  0
   -3.2111   10.7622    1.0156 H   0  0  0  0  0  0  0  0  0  0  0  0
   -2.4272    9.2684    1.5235 H   0  0  0  0  0  0  0  0  0  0  0  0
   -2.5376   12.0776   -0.5504 H   0  0  0  0  0  0  0  0  0  0  0  0
   -1.3938   11.6597   -1.8710 H   0  0  0  0  0  0  0  0  0  0  0  0
   -3.0545   10.9751   -1.8710 H   0  0  0  0  0  0  0  0  0  0  0  0
   -0.1203    9.4232    0.8032 H   0  0  0  0  0  0  0  0  0  0  0  0
   -1.0447   11.7103    1.5460 H   0  0  0  0  0  0  0  0  0  0  0  0
    0.7444   11.3072    1.7077 H   0  0  0  0  0  0  0  0  0  0  0  0
    0.1689   13.7320    0.8545 H   0  0  0  0  0  0  0  0  0  0  0  0
    0.2591   11.5131   -2.5169 H   0  0  0  0  0  0  0  0  0  0  0  0
    3.2112   11.7176   -1.6557 H   0  0  0  0  0  0  0  0  0  0  0  0
    2.5549   10.8348   -3.1049 H   0  0  0  0  0  0  0  0  0  0  0  0
    3.5718   13.0067   -3.7127 H   0  0  0  0  0  0  0  0  0  0  0  0
    1.8035   12.9277   -4.0778 H   0  0  0  0  0  0  0  0  0  0  0  0
    2.2976   15.0725   -3.1195 H   0  0  0  0  0  0  0  0  0  0  0  0
    3.2320   13.6840   -0.7830 H   0  0  0  0  0  0  0  0  0  0  0  0
   -1.1421   14.5061   -2.1749 H   0  0  0  0  0  0  0  0  0  0  0  0
    0.0036   15.2449   -3.3446 H   0  0  0  0  0  0  0  0  0  0  0  0
   -0.2587   13.4678   -3.3446 H   0  0  0  0  0  0  0  0  0  0  0  0
    0.9197   15.1190    0.2844 H   0  0  0  0  0  0  0  0  0  0  0  0
    1.7777   16.0830   -0.9651 H   0  0  0  0  0  0  0  0  0  0  0  0
   -0.0170   16.0067   -0.9651 H   0  0  0  0  0  0  0  0  0  0  0  0
    2.0269    9.8964    0.8681 H   0  0  0  0  0  0  0  0  0  0  0  0
    2.5112    8.8353   -0.4979 H   0  0  0  0  0  0  0  0  0  0  0  0
    2.9795   10.5695   -0.4979 H   0  0  0  0  0  0  0  0  0  0  0  0
    1.1880    9.2863   -2.9100 H   0  0  0  0  0  0  0  0  0  0  0  0
    0.9399    8.1296   -1.4833 H   0  0  0  0  0  0  0  0  0  0  0  0
   -1.1871    9.6211   -3.0453 H   0  0  0  0  0  0  0  0  0  0  0  0
   -0.8877    7.8407   -2.9641 H   0  0  0  0  0  0  0  0  0  0  0  0
   -1.3651    7.6791    0.7283 H   0  0  0  0  0  0  0  0  0  0  0  0
   -1.9090    6.5821   -0.5859 H   0  0  0  0  0  0  0  0  0  0  0  0
   -0.2299    7.2201   -0.5859 H   0  0  0  0  0  0  0  0  0  0  0  0
  1  2  1  0
  2  3  1  0
  3  4  1  0
  4  5  1  0
  5  6  1  0
  6  7  1  0
  7  8  1  0
  7  9  1  0
  2 10  1  0
 10 11  1  0
 11 12  1  0
 12 13  1  0
 13 14  1  6
 13 15  1  0
 15 16  1  0
 16 17  1  0
 17 18  2  0
 18 19  1  0
 19 20  1  0
 20 21  1  0
 21 22  1  0
 22 23  1  0
 22 24  1  0
 24 25  1  0
 24 26  1  0
 19 27  1  0
 27 28  1  1
 27 29  1  0
 29 30  1  0
 30 31  1  0
 31 32  1  1
  7  5  1  0
 31 10  1  0
 31 13  1  0
 27 15  1  0
 24 18  1  0
  1 33  1  0
  1 34  1  0
  1 35  1  0
  2 36  1  1
  3 37  1  0
  3 38  1  0
  4 39  1  0
  4 40  1  0
  5 41  1  1
  8 42  1  0
  8 43  1  0
  8 44  1  0
  9 45  1  0
  9 46  1  0
  9 47  1  0
 10 48  1  6
 11 49  1  0
 11 50  1  0
 12 51  1  0
 12 52  1  0
 14 53  1  0
 14 54  1  0
 14 55  1  0
 15 56  1  1
 16 57  1  0
 16 58  1  0
 17 59  1  0
 19 60  1  6
 20 61  1  0
 20 62  1  0
 21 63  1  0
 21 64  1  0
 22 65  1  6
 23 66  1  0
 25 67  1  0
 25 68  1  0
 25 69  1  0
 26 70  1  0
 26 71  1  0
 26 72  1  0
 28 73  1  0
 28 74  1  0
 28 75  1  0
 29 76  1  0
 29 77  1  0
 30 78  1  0
 30 79  1  0
 32 80  1  0
 32 81  1  0
 32 82  1  0
M  END
>  <meeko>  (10) 
{"is_sidechain": [false], "intermolecular_energy": 2.731, "internal_energy": -0.839}

$$$$
EPH_relaxed_0001_pdb2pqr_Repair_222_r2_0001_out
     RDKit          3D

 82 86  0  0  0  0  0  0  0  0999 V2000
   -1.1950    8.7040   -3.5820 C   0  0  0  0  0  0  0  0  0  0  0  0
   -1.6640    8.3540   -2.1670 C   0  0  2  0  0  0  0  0  0  0  0  0
   -3.1470    7.9330   -2.1340 C   0  0  0  0  0  0  0  0  0  0  0  0
   -3.4670    6.7370   -3.0340 C   0  0  0  0  0  0  0  0  0  0  0  0
   -4.8740    6.7930   -3.5500 C   0  0  2  0  0  0  0  0  0  0  0  0
   -5.7100    7.7610   -2.9040 O   0  0  0  0  0  0  0  0  0  0  0  0
   -6.0820    6.3850   -2.7280 C   0  0  0  0  0  0  0  0  0  0  0  0
   -5.9400    5.8900   -1.3230 C   0  0  0  0  0  0  0  0  0  0  0  0
   -7.3400    6.0040   -3.4460 C   0  0  0  0  0  0  0  0  0  0  0  0
   -1.4380    9.5400   -1.2370 C   0  0  1  0  0  0  0  0  0  0  0  0
   -1.2070    9.1090    0.2360 C   0  0  0  0  0  0  0  0  0  0  0  0
   -0.1880   10.1080    0.8410 C   0  0  0  0  0  0  0  0  0  0  0  0
   -0.1200   11.2640   -0.1850 C   0  0  1  0  0  0  0  0  0  0  0  0
   -1.3650   12.1510    0.1270 C   0  0  0  0  0  0  0  0  0  0  0  0
    1.1990   12.1030   -0.1930 C   0  0  2  0  0  0  0  0  0  0  0  0
    1.5000   12.8590    1.1130 C   0  0  0  0  0  0  0  0  0  0  0  0
    0.9500   14.2450    1.1880 C   0  0  0  0  0  0  0  0  0  0  0  0
    0.4910   14.9620    0.1460 C   0  0  0  0  0  0  0  0  0  0  0  0
    0.5870   14.4210   -1.2860 C   0  0  1  0  0  0  0  0  0  0  0  0
    1.1320   15.5300   -2.2230 C   0  0  0  0  0  0  0  0  0  0  0  0
    0.3190   16.8180   -2.1400 C   0  0  0  0  0  0  0  0  0  0  0  0
    0.2960   17.3570   -0.7120 C   0  0  2  0  0  0  0  0  0  0  0  0
    1.6170   17.7710   -0.3530 O   0  0  0  0  0  0  0  0  0  0  0  0
   -0.2270   16.3230    0.3240 C   0  0  0  0  0  0  0  0  0  0  0  0
   -1.7460   16.1010    0.1180 C   0  0  0  0  0  0  0  0  0  0  0  0
   -0.0670   16.9410    1.7390 C   0  0  0  0  0  0  0  0  0  0  0  0
    1.3610   13.0430   -1.4560 C   0  0  1  0  0  0  0  0  0  0  0  0
    2.8890   13.3080   -1.6210 C   0  0  0  0  0  0  0  0  0  0  0  0
    0.8860   12.3470   -2.7860 C   0  0  0  0  0  0  0  0  0  0  0  0
   -0.3520   11.4350   -2.6880 C   0  0  0  0  0  0  0  0  0  0  0  0
   -0.2160   10.4480   -1.5250 C   0  0  2  0  0  0  0  0  0  0  0  0
    1.0160    9.5270   -1.8220 C   0  0  0  0  0  0  0  0  0  0  0  0
   -0.3146    9.3610   -3.5245 H   0  0  0  0  0  0  0  0  0  0  0  0
   -0.9296    7.7814   -4.1190 H   0  0  0  0  0  0  0  0  0  0  0  0
   -2.0039    9.2210   -4.1190 H   0  0  0  0  0  0  0  0  0  0  0  0
   -1.0697    7.4942   -1.8243 H   0  0  0  0  0  0  0  0  0  0  0  0
   -3.4102    7.6691   -1.0991 H   0  0  0  0  0  0  0  0  0  0  0  0
   -3.7316    8.7849   -2.5114 H   0  0  0  0  0  0  0  0  0  0  0  0
   -2.7737    6.7377   -3.8880 H   0  0  0  0  0  0  0  0  0  0  0  0
   -3.3563    5.8193   -2.4377 H   0  0  0  0  0  0  0  0  0  0  0  0
   -4.5403    6.5139   -4.5603 H   0  0  0  0  0  0  0  0  0  0  0  0
   -6.1737    6.7047   -0.6218 H   0  0  0  0  0  0  0  0  0  0  0  0
   -6.6343    5.0531   -1.1572 H   0  0  0  0  0  0  0  0  0  0  0  0
   -4.9076    5.5484   -1.1572 H   0  0  0  0  0  0  0  0  0  0  0  0
   -8.1238    5.7666   -2.7116 H   0  0  0  0  0  0  0  0  0  0  0  0
   -7.6704    6.8424   -4.0769 H   0  0  0  0  0  0  0  0  0  0  0  0
   -7.1497    5.1232   -4.0769 H   0  0  0  0  0  0  0  0  0  0  0  0
   -2.3703   10.0951   -1.4177 H   0  0  0  0  0  0  0  0  0  0  0  0
   -2.1536    9.1487    0.7949 H   0  0  0  0  0  0  0  0  0  0  0  0
   -0.8283    8.0777    0.2905 H   0  0  0  0  0  0  0  0  0  0  0  0
   -0.5368   10.4752    1.8174 H   0  0  0  0  0  0  0  0  0  0  0  0
    0.7952    9.6468    1.0162 H   0  0  0  0  0  0  0  0  0  0  0  0
   -1.4887   12.2391    1.2165 H   0  0  0  0  0  0  0  0  0  0  0  0
   -1.2209   13.1511   -0.3077 H   0  0  0  0  0  0  0  0  0  0  0  0
   -2.2632   11.6881   -0.3077 H   0  0  0  0  0  0  0  0  0  0  0  0
    1.9729   11.3253   -0.2722 H   0  0  0  0  0  0  0  0  0  0  0  0
    1.0766   12.2796    1.9466 H   0  0  0  0  0  0  0  0  0  0  0  0
    2.5941   12.9625    1.1599 H   0  0  0  0  0  0  0  0  0  0  0  0
    0.9172   14.7204    2.1794 H   0  0  0  0  0  0  0  0  0  0  0  0
   -0.4390   14.1552   -1.5802 H   0  0  0  0  0  0  0  0  0  0  0  0
    2.1719   15.7507   -1.9404 H   0  0  0  0  0  0  0  0  0  0  0  0
    1.0632   15.1579   -3.2559 H   0  0  0  0  0  0  0  0  0  0  0  0
    0.7700   17.5718   -2.8022 H   0  0  0  0  0  0  0  0  0  0  0  0
   -0.7139   16.6021   -2.4507 H   0  0  0  0  0  0  0  0  0  0  0  0
   -0.4046   18.2048   -0.6912 H   0  0  0  0  0  0  0  0  0  0  0  0
    1.8800   17.2680    0.4360 H   0  0  0  0  0  0  0  0  0  0  0  0
   -2.2421   16.0285    1.0971 H   0  0  0  0  0  0  0  0  0  0  0  0
   -2.1672   16.9471   -0.4447 H   0  0  0  0  0  0  0  0  0  0  0  0
   -1.9075   15.1697   -0.4447 H   0  0  0  0  0  0  0  0  0  0  0  0
   -0.2661   16.1718    2.4997 H   0  0  0  0  0  0  0  0  0  0  0  0
    0.9587   17.3194    1.8600 H   0  0  0  0  0  0  0  0  0  0  0  0
   -0.7802   17.7697    1.8600 H   0  0  0  0  0  0  0  0  0  0  0  0
    3.3564   13.3891   -0.6285 H   0  0  0  0  0  0  0  0  0  0  0  0
    3.3477   12.4760   -2.1754 H   0  0  0  0  0  0  0  0  0  0  0  0
    3.0407   14.2459   -2.1754 H   0  0  0  0  0  0  0  0  0  0  0  0
    0.6587   13.1398   -3.5139 H   0  0  0  0  0  0  0  0  0  0  0  0
    1.7127   11.6808   -3.0738 H   0  0  0  0  0  0  0  0  0  0  0  0
   -1.2453   12.0570   -2.5293 H   0  0  0  0  0  0  0  0  0  0  0  0
   -0.4413   10.8637   -3.6238 H   0  0  0  0  0  0  0  0  0  0  0  0
    1.4618    9.1937   -0.8732 H   0  0  0  0  0  0  0  0  0  0  0  0
    0.6878    8.6509   -2.4007 H   0  0  0  0  0  0  0  0  0  0  0  0
    1.7634   10.0897   -2.4007 H   0  0  0  0  0  0  0  0  0  0  0  0
  1  2  1  0
  2  3  1  0
  3  4  1  0
  4  5  1  0
  5  6  1  0
  6  7  1  0
  7  8  1  0
  7  9  1  0
  2 10  1  0
 10 11  1  0
 11 12  1  0
 12 13  1  0
 13 14  1  1
 13 15  1  0
 15 16  1  0
 16 17  1  0
 17 18  2  0
 18 19  1  0
 19 20  1  0
 20 21  1  0
 21 22  1  0
 22 23  1  0
 22 24  1  0
 24 25  1  0
 24 26  1  0
 19 27  1  0
 27 28  1  6
 27 29  1  0
 29 30  1  0
 30 31  1  0
 31 32  1  6
  7  5  1  0
 31 10  1  0
 31 13  1  0
 27 15  1  0
 24 18  1  0
  1 33  1  0
  1 34  1  0
  1 35  1  0
  2 36  1  1
  3 37  1  0
  3 38  1  0
  4 39  1  0
  4 40  1  0
  5 41  1  6
  8 42  1  0
  8 43  1  0
  8 44  1  0
  9 45  1  0
  9 46  1  0
  9 47  1  0
 10 48  1  1
 11 49  1  0
 11 50  1  0
 12 51  1  0
 12 52  1  0
 14 53  1  0
 14 54  1  0
 14 55  1  0
 15 56  1  6
 16 57  1  0
 16 58  1  0
 17 59  1  0
 19 60  1  6
 20 61  1  0
 20 62  1  0
 21 63  1  0
 21 64  1  0
 22 65  1  6
 23 66  1  0
 25 67  1  0
 25 68  1  0
 25 69  1  0
 26 70  1  0
 26 71  1  0
 26 72  1  0
 28 73  1  0
 28 74  1  0
 28 75  1  0
 29 76  1  0
 29 77  1  0
 30 78  1  0
 30 79  1  0
 32 80  1  0
 32 81  1  0
 32 82  1  0
M  END
>  <meeko>  (11) 
{"is_sidechain": [false], "intermolecular_energy": 2.731, "internal_energy": -0.839}

$$$$
EPH_relaxed_0001_pdb2pqr_Repair_222_r2_0001_out
     RDKit          3D

 82 86  0  0  0  0  0  0  0  0999 V2000
    0.9120   14.9120   -2.5940 C   0  0  0  0  0  0  0  0  0  0  0  0
    1.1850   14.2420   -3.9440 C   0  0  2  0  0  0  0  0  0  0  0  0
    0.4890   14.9760   -5.1080 C   0  0  0  0  0  0  0  0  0  0  0  0
    1.0490   14.6140   -6.4860 C   0  0  0  0  0  0  0  0  0  0  0  0
    0.8050   15.7030   -7.4870 C   0  0  2  0  0  0  0  0  0  0  0  0
    0.3510   15.2480   -8.7680 O   0  0  0  0  0  0  0  0  0  0  0  0
    1.6370   15.8870   -8.7420 C   0  0  0  0  0  0  0  0  0  0  0  0
    2.7780   14.9720   -9.0630 C   0  0  0  0  0  0  0  0  0  0  0  0
    1.6550   17.2330   -9.3980 C   0  0  0  0  0  0  0  0  0  0  0  0
    0.7350   12.7870   -3.9020 C   0  0  1  0  0  0  0  0  0  0  0  0
    1.8680   11.8000   -4.2910 C   0  0  0  0  0  0  0  0  0  0  0  0
    1.6680   10.5270   -3.4280 C   0  0  0  0  0  0  0  0  0  0  0  0
    0.2540   10.6850   -2.8210 C   0  0  1  0  0  0  0  0  0  0  0  0
   -0.7210   10.2250   -3.9500 C   0  0  0  0  0  0  0  0  0  0  0  0
   -0.0130    9.9230   -1.4820 C   0  0  2  0  0  0  0  0  0  0  0  0
    0.0930    8.3910   -1.5720 C   0  0  0  0  0  0  0  0  0  0  0  0
   -1.1790    7.6820   -1.9020 C   0  0  0  0  0  0  0  0  0  0  0  0
   -2.4120    8.2190   -1.8390 C   0  0  0  0  0  0  0  0  0  0  0  0
   -2.6260    9.6420   -1.3070 C   0  0  1  0  0  0  0  0  0  0  0  0
   -3.8070    9.6460   -0.3010 C   0  0  0  0  0  0  0  0  0  0  0  0
   -5.0800    9.0460   -0.8900 C   0  0  0  0  0  0  0  0  0  0  0  0
   -4.8420    7.6120   -1.3540 C   0  0  2  0  0  0  0  0  0  0  0  0
   -4.5850    6.7930   -0.2090 O   0  0  0  0  0  0  0  0  0  0  0  0
   -3.6690    7.4810   -2.3640 C   0  0  0  0  0  0  0  0  0  0  0  0
   -4.0740    8.1150   -3.7180 C   0  0  0  0  0  0  0  0  0  0  0  0
   -3.4440    5.9700   -2.6420 C   0  0  0  0  0  0  0  0  0  0  0  0
   -1.3340   10.3690   -0.7350 C   0  0  1  0  0  0  0  0  0  0  0  0
   -1.1400   10.0050    0.7690 C   0  0  0  0  0  0  0  0  0  0  0  0
   -1.5550   11.9270   -0.7890 C   0  0  0  0  0  0  0  0  0  0  0  0
   -1.1610   12.6400   -2.0970 C   0  0  0  0  0  0  0  0  0  0  0  0
    0.2470   12.2320   -2.5400 C   0  0  2  0  0  0  0  0  0  0  0  0
    1.2520   12.7020   -1.4340 C   0  0  0  0  0  0  0  0  0  0  0  0
    1.1916   14.2259   -1.7809 H   0  0  0  0  0  0  0  0  0  0  0  0
    1.5059   15.8346   -2.5158 H   0  0  0  0  0  0  0  0  0  0  0  0
   -0.1576   15.1568   -2.5158 H   0  0  0  0  0  0  0  0  0  0  0  0
    2.2690   14.2907   -4.1247 H   0  0  0  0  0  0  0  0  0  0  0  0
   -0.5807   14.7204   -5.0897 H   0  0  0  0  0  0  0  0  0  0  0  0
    0.6659   16.0518   -4.9615 H   0  0  0  0  0  0  0  0  0  0  0  0
    2.1327   14.4471   -6.3978 H   0  0  0  0  0  0  0  0  0  0  0  0
    0.5375   13.7053   -6.8362 H   0  0  0  0  0  0  0  0  0  0  0  0
    0.5067   16.4006   -6.6905 H   0  0  0  0  0  0  0  0  0  0  0  0
    3.2308   14.6089   -8.1286 H   0  0  0  0  0  0  0  0  0  0  0  0
    2.4088   14.1168   -9.6481 H   0  0  0  0  0  0  0  0  0  0  0  0
    3.5326   15.5182   -9.6481 H   0  0  0  0  0  0  0  0  0  0  0  0
    1.6655   18.0169   -8.6263 H   0  0  0  0  0  0  0  0  0  0  0  0
    2.5544   17.3234  -10.0248 H   0  0  0  0  0  0  0  0  0  0  0  0
    0.7583   17.3475  -10.0248 H   0  0  0  0  0  0  0  0  0  0  0  0
   -0.1042   12.8331   -4.6117 H   0  0  0  0  0  0  0  0  0  0  0  0
    1.8004   11.5478   -5.3596 H   0  0  0  0  0  0  0  0  0  0  0  0
    2.8581   12.2456   -4.1142 H   0  0  0  0  0  0  0  0  0  0  0  0
    1.7241    9.6225   -4.0515 H   0  0  0  0  0  0  0  0  0  0  0  0
    2.4439   10.4206   -2.6556 H   0  0  0  0  0  0  0  0  0  0  0  0
   -1.6284    9.7969   -3.4990 H   0  0  0  0  0  0  0  0  0  0  0  0
   -0.9941   11.0893   -4.5733 H   0  0  0  0  0  0  0  0  0  0  0  0
   -0.2276    9.4647   -4.5733 H   0  0  0  0  0  0  0  0  0  0  0  0
    0.8313   10.2443   -0.8544 H   0  0  0  0  0  0  0  0  0  0  0  0
    0.8303    8.1465   -2.3508 H   0  0  0  0  0  0  0  0  0  0  0  0
    0.3819    8.0464   -0.5681 H   0  0  0  0  0  0  0  0  0  0  0  0
   -1.1022    6.6329   -2.2236 H   0  0  0  0  0  0  0  0  0  0  0  0
   -2.8788   10.2597   -2.1814 H   0  0  0  0  0  0  0  0  0  0  0  0
   -3.5181    9.0603    0.5842 H   0  0  0  0  0  0  0  0  0  0  0  0
   -4.0208   10.6934   -0.0417 H   0  0  0  0  0  0  0  0  0  0  0  0
   -5.8685    9.0502   -0.1230 H   0  0  0  0  0  0  0  0  0  0  0  0
   -5.3846    9.6501   -1.7574 H   0  0  0  0  0  0  0  0  0  0  0  0
   -5.7486    7.2824   -1.8826 H   0  0  0  0  0  0  0  0  0  0  0  0
   -3.7570    6.3110   -0.3720 H   0  0  0  0  0  0  0  0  0  0  0  0
   -4.6579    9.0291   -3.5348 H   0  0  0  0  0  0  0  0  0  0  0  0
   -3.1690    8.3666   -4.2904 H   0  0  0  0  0  0  0  0  0  0  0  0
   -4.6827    7.3996   -4.2904 H   0  0  0  0  0  0  0  0  0  0  0  0
   -3.3635    5.4295   -1.6873 H   0  0  0  0  0  0  0  0  0  0  0  0
   -4.2929    5.5727   -3.2178 H   0  0  0  0  0  0  0  0  0  0  0  0
   -2.5162    5.8373   -3.2178 H   0  0  0  0  0  0  0  0  0  0  0  0
   -1.5648   10.8020    1.3969 H   0  0  0  0  0  0  0  0  0  0  0  0
   -1.6518    9.0557    0.9855 H   0  0  0  0  0  0  0  0  0  0  0  0
   -0.0666    9.9005    0.9855 H   0  0  0  0  0  0  0  0  0  0  0  0
   -2.6243   12.1176   -0.6153 H   0  0  0  0  0  0  0  0  0  0  0  0
   -0.8825   12.3397   -0.0225 H   0  0  0  0  0  0  0  0  0  0  0  0
   -1.8790   12.3691   -2.8851 H   0  0  0  0  0  0  0  0  0  0  0  0
   -1.1732   13.7260   -1.9223 H   0  0  0  0  0  0  0  0  0  0  0  0
    0.8240   12.5018   -0.4407 H   0  0  0  0  0  0  0  0  0  0  0  0
    2.1993   12.1535   -1.5424 H   0  0  0  0  0  0  0  0  0  0  0  0
    1.4384   13.7807   -1.5424 H   0  0  0  0  0  0  0  0  0  0  0  0
  1  2  1  0
  2  3  1  0
  3  4  1  0
  4  5  1  0
  5  6  1  0
  6  7  1  0
  7  8  1  0
  7  9  1  0
  2 10  1  0
 10 11  1  0
 11 12  1  0
 12 13  1  0
 13 14  1  6
 13 15  1  0
 15 16  1  0
 16 17  1  0
 17 18  2  0
 18 19  1  0
 19 20  1  0
 20 21  1  0
 21 22  1  0
 22 23  1  0
 22 24  1  0
 24 25  1  0
 24 26  1  0
 19 27  1  0
 27 28  1  1
 27 29  1  0
 29 30  1  0
 30 31  1  0
 31 32  1  1
  7  5  1  0
 31 10  1  0
 31 13  1  0
 27 15  1  0
 24 18  1  0
  1 33  1  0
  1 34  1  0
  1 35  1  0
  2 36  1  6
  3 37  1  0
  3 38  1  0
  4 39  1  0
  4 40  1  0
  5 41  1  1
  8 42  1  0
  8 43  1  0
  8 44  1  0
  9 45  1  0
  9 46  1  0
  9 47  1  0
 10 48  1  6
 11 49  1  0
 11 50  1  0
 12 51  1  0
 12 52  1  0
 14 53  1  0
 14 54  1  0
 14 55  1  0
 15 56  1  1
 16 57  1  0
 16 58  1  0
 17 59  1  0
 19 60  1  6
 20 61  1  0
 20 62  1  0
 21 63  1  0
 21 64  1  0
 22 65  1  6
 23 66  1  0
 25 67  1  0
 25 68  1  0
 25 69  1  0
 26 70  1  0
 26 71  1  0
 26 72  1  0
 28 73  1  0
 28 74  1  0
 28 75  1  0
 29 76  1  0
 29 77  1  0
 30 78  1  0
 30 79  1  0
 32 80  1  0
 32 81  1  0
 32 82  1  0
M  END
>  <meeko>  (12) 
{"is_sidechain": [false], "intermolecular_energy": 2.731, "internal_energy": -0.839}

$$$$
EPH_relaxed_0001_pdb2pqr_Repair_222_r2_0001_out
     RDKit          3D

 82 86  0  0  0  0  0  0  0  0999 V2000
   -2.4310    7.7460   -0.0480 C   0  0  0  0  0  0  0  0  0  0  0  0
   -3.0760    9.1340   -0.0580 C   0  0  2  0  0  0  0  0  0  0  0  0
   -4.5640    9.0800   -0.4610 C   0  0  0  0  0  0  0  0  0  0  0  0
   -5.1320    7.6600   -0.5270 C   0  0  0  0  0  0  0  0  0  0  0  0
   -5.8510    7.4100   -1.8180 C   0  0  2  0  0  0  0  0  0  0  0  0
   -6.7820    8.4330   -2.1930 O   0  0  0  0  0  0  0  0  0  0  0  0
   -7.3410    7.1410   -1.9080 C   0  0  0  0  0  0  0  0  0  0  0  0
   -8.2030    7.1070   -0.6850 C   0  0  0  0  0  0  0  0  0  0  0  0
   -7.8690    6.4330   -3.1160 C   0  0  0  0  0  0  0  0  0  0  0  0
   -2.3140   10.0550   -1.0040 C   0  0  1  0  0  0  0  0  0  0  0  0
   -2.9640   11.4590   -1.1250 C   0  0  0  0  0  0  0  0  0  0  0  0
   -1.8060   12.4760   -1.2930 C   0  0  0  0  0  0  0  0  0  0  0  0
   -0.5640   11.6060   -1.5940 C   0  0  1  0  0  0  0  0  0  0  0  0
   -0.6640   11.2780   -3.1170 C   0  0  0  0  0  0  0  0  0  0  0  0
    0.8220   12.2300   -1.2280 C   0  0  2  0  0  0  0  0  0  0  0  0
    1.1800   13.5170   -1.9910 C   0  0  0  0  0  0  0  0  0  0  0  0
    1.9240   13.3150   -3.2700 C   0  0  0  0  0  0  0  0  0  0  0  0
    2.5390   12.1780   -3.6450 C   0  0  0  0  0  0  0  0  0  0  0  0
    2.6060   10.9700   -2.7020 C   0  0  1  0  0  0  0  0  0  0  0  0
    4.0520   10.4070   -2.6840 C   0  0  0  0  0  0  0  0  0  0  0  0
    4.5710   10.0850   -4.0820 C   0  0  0  0  0  0  0  0  0  0  0  0
    4.5430   11.3250   -4.9730 C   0  0  2  0  0  0  0  0  0  0  0  0
    5.4910   12.2730   -4.4730 O   0  0  0  0  0  0  0  0  0  0  0  0
    3.1390   11.9850   -5.0600 C   0  0  0  0  0  0  0  0  0  0  0  0
    2.1850   11.0750   -5.8720 C   0  0  0  0  0  0  0  0  0  0  0  0
    3.2800   13.3010   -5.8720 C   0  0  0  0  0  0  0  0  0  0  0  0
    2.0220   11.1980   -1.2410 C   0  0  1  0  0  0  0  0  0  0  0  0
    3.1260   11.7870   -0.3120 C   0  0  0  0  0  0  0  0  0  0  0  0
    1.6200    9.8050   -0.6260 C   0  0  0  0  0  0  0  0  0  0  0  0
    0.1960    9.2980   -0.9250 C   0  0  0  0  0  0  0  0  0  0  0  0
   -0.8440   10.3870   -0.6420 C   0  0  2  0  0  0  0  0  0  0  0  0
   -0.7820   10.7220    0.8870 C   0  0  0  0  0  0  0  0  0  0  0  0
   -2.2793    7.4196    0.9915 H   0  0  0  0  0  0  0  0  0  0  0  0
   -3.0896    7.0319   -0.5641 H   0  0  0  0  0  0  0  0  0  0  0  0
   -1.4606    7.7889   -0.5641 H   0  0  0  0  0  0  0  0  0  0  0  0
   -3.0252    9.5295    0.9672 H   0  0  0  0  0  0  0  0  0  0  0  0
   -5.1448    9.6525    0.2772 H   0  0  0  0  0  0  0  0  0  0  0  0
   -4.6387    9.5037   -1.4734 H   0  0  0  0  0  0  0  0  0  0  0  0
   -4.3050    6.9406   -0.4344 H   0  0  0  0  0  0  0  0  0  0  0  0
   -5.8525    7.5403    0.2955 H   0  0  0  0  0  0  0  0  0  0  0  0
   -4.9793    6.8780   -2.2268 H   0  0  0  0  0  0  0  0  0  0  0  0
   -7.5674    7.1321    0.2124 H   0  0  0  0  0  0  0  0  0  0  0  0
   -8.8730    7.9794   -0.6843 H   0  0  0  0  0  0  0  0  0  0  0  0
   -8.8022    6.1845   -0.6843 H   0  0  0  0  0  0  0  0  0  0  0  0
   -8.4989    5.5884   -2.7999 H   0  0  0  0  0  0  0  0  0  0  0  0
   -8.4681    7.1320   -3.7180 H   0  0  0  0  0  0  0  0  0  0  0  0
   -7.0281    6.0581   -3.7180 H   0  0  0  0  0  0  0  0  0  0  0  0
   -2.3491    9.4474   -1.9203 H   0  0  0  0  0  0  0  0  0  0  0  0
   -3.6289   11.4942   -2.0006 H   0  0  0  0  0  0  0  0  0  0  0  0
   -3.5680   11.6922   -0.2357 H   0  0  0  0  0  0  0  0  0  0  0  0
   -2.0104   13.1630   -2.1274 H   0  0  0  0  0  0  0  0  0  0  0  0
   -1.6692   13.1039   -0.4002 H   0  0  0  0  0  0  0  0  0  0  0  0
   -0.9825   10.2332   -3.2469 H   0  0  0  0  0  0  0  0  0  0  0  0
   -1.3991   11.9468   -3.5886 H   0  0  0  0  0  0  0  0  0  0  0  0
    0.3191   11.4229   -3.5886 H   0  0  0  0  0  0  0  0  0  0  0  0
    0.6740   12.5342   -0.1813 H   0  0  0  0  0  0  0  0  0  0  0  0
    0.2439   14.0463   -2.2224 H   0  0  0  0  0  0  0  0  0  0  0  0
    1.8554   14.0829   -1.3325 H   0  0  0  0  0  0  0  0  0  0  0  0
    1.9736   14.1670   -3.9639 H   0  0  0  0  0  0  0  0  0  0  0  0
    1.9182   10.2197   -3.1191 H   0  0  0  0  0  0  0  0  0  0  0  0
    4.7158   11.1543   -2.2247 H   0  0  0  0  0  0  0  0  0  0  0  0
    4.0386    9.4697   -2.1083 H   0  0  0  0  0  0  0  0  0  0  0  0
    5.6056    9.7191   -4.0066 H   0  0  0  0  0  0  0  0  0  0  0  0
    3.9231    9.3165   -4.5289 H   0  0  0  0  0  0  0  0  0  0  0  0
    4.8021   11.0047   -5.9930 H   0  0  0  0  0  0  0  0  0  0  0  0
    6.1220   11.7910   -3.9120 H   0  0  0  0  0  0  0  0  0  0  0  0
    1.5656   10.4841   -5.1812 H   0  0  0  0  0  0  0  0  0  0  0  0
    1.5359   11.6971   -6.5058 H   0  0  0  0  0  0  0  0  0  0  0  0
    2.7758   10.3973   -6.5058 H   0  0  0  0  0  0  0  0  0  0  0  0
    3.3711   14.1510   -5.1798 H   0  0  0  0  0  0  0  0  0  0  0  0
    4.1774   13.2465   -6.5057 H   0  0  0  0  0  0  0  0  0  0  0  0
    2.3914   13.4378   -6.5057 H   0  0  0  0  0  0  0  0  0  0  0  0
    2.8403   11.6346    0.7393 H   0  0  0  0  0  0  0  0  0  0  0  0
    4.0812   11.2787   -0.5098 H   0  0  0  0  0  0  0  0  0  0  0  0
    3.2357   12.8635   -0.5098 H   0  0  0  0  0  0  0  0  0  0  0  0
    2.3275    9.0552   -1.0098 H   0  0  0  0  0  0  0  0  0  0  0  0
    1.6500    9.9522    0.4637 H   0  0  0  0  0  0  0  0  0  0  0  0
    0.1327    9.0063   -1.9837 H   0  0  0  0  0  0  0  0  0  0  0  0
   -0.0132    8.4356   -0.2751 H   0  0  0  0  0  0  0  0  0  0  0  0
   -0.9517    9.8050    1.4704 H   0  0  0  0  0  0  0  0  0  0  0  0
    0.2078   11.1346    1.1321 H   0  0  0  0  0  0  0  0  0  0  0  0
   -1.5585   11.4615    1.1321 H   0  0  0  0  0  0  0  0  0  0  0  0
  1  2  1  0
  2  3  1  0
  3  4  1  0
  4  5  1  0
  5  6  1  0
  6  7  1  0
  7  8  1  0
  7  9  1  0
  2 10  1  0
 10 11  1  0
 11 12  1  0
 12 13  1  0
 13 14  1  6
 13 15  1  0
 15 16  1  0
 16 17  1  0
 17 18  2  0
 18 19  1  0
 19 20  1  0
 20 21  1  0
 21 22  1  0
 22 23  1  0
 22 24  1  0
 24 25  1  0
 24 26  1  0
 19 27  1  0
 27 28  1  1
 27 29  1  0
 29 30  1  0
 30 31  1  0
 31 32  1  1
  7  5  1  0
 31 10  1  0
 31 13  1  0
 27 15  1  0
 24 18  1  0
  1 33  1  0
  1 34  1  0
  1 35  1  0
  2 36  1  1
  3 37  1  0
  3 38  1  0
  4 39  1  0
  4 40  1  0
  5 41  1  6
  8 42  1  0
  8 43  1  0
  8 44  1  0
  9 45  1  0
  9 46  1  0
  9 47  1  0
 10 48  1  6
 11 49  1  0
 11 50  1  0
 12 51  1  0
 12 52  1  0
 14 53  1  0
 14 54  1  0
 14 55  1  0
 15 56  1  1
 16 57  1  0
 16 58  1  0
 17 59  1  0
 19 60  1  6
 20 61  1  0
 20 62  1  0
 21 63  1  0
 21 64  1  0
 22 65  1  6
 23 66  1  0
 25 67  1  0
 25 68  1  0
 25 69  1  0
 26 70  1  0
 26 71  1  0
 26 72  1  0
 28 73  1  0
 28 74  1  0
 28 75  1  0
 29 76  1  0
 29 77  1  0
 30 78  1  0
 30 79  1  0
 32 80  1  0
 32 81  1  0
 32 82  1  0
M  END
>  <meeko>  (13) 
{"is_sidechain": [false], "intermolecular_energy": 2.731, "internal_energy": -0.839}

$$$$
EPH_relaxed_0001_pdb2pqr_Repair_222_r2_0001_out
     RDKit          3D

 82 86  0  0  0  0  0  0  0  0999 V2000
    4.5310   11.9560   -4.5730 C   0  0  0  0  0  0  0  0  0  0  0  0
    3.1590   11.9640   -5.2530 C   0  0  2  0  0  0  0  0  0  0  0  0
    3.2000   12.6470   -6.6350 C   0  0  0  0  0  0  0  0  0  0  0  0
    2.3330   13.9050   -6.7250 C   0  0  0  0  0  0  0  0  0  0  0  0
    2.5440   14.6320   -8.0190 C   0  0  2  0  0  0  0  0  0  0  0  0
    2.5130   16.0610   -7.9150 O   0  0  0  0  0  0  0  0  0  0  0  0
    1.4690   15.4600   -8.6980 C   0  0  0  0  0  0  0  0  0  0  0  0
    0.1030   15.6030   -8.1050 C   0  0  0  0  0  0  0  0  0  0  0  0
    1.5910   15.7230  -10.1670 C   0  0  0  0  0  0  0  0  0  0  0  0
    2.1400   12.6590   -4.3580 C   0  0  1  0  0  0  0  0  0  0  0  0
    0.8330   13.0240   -5.1130 C   0  0  0  0  0  0  0  0  0  0  0  0
   -0.3290   12.8610   -4.0990 C   0  0  0  0  0  0  0  0  0  0  0  0
    0.3680   12.7340   -2.7240 C   0  0  1  0  0  0  0  0  0  0  0  0
    0.6960   14.2010   -2.3040 C   0  0  0  0  0  0  0  0  0  0  0  0
   -0.4310   11.9800   -1.6120 C   0  0  2  0  0  0  0  0  0  0  0  0
   -1.7600   12.6400   -1.2020 C   0  0  0  0  0  0  0  0  0  0  0  0
   -1.6660   13.6180   -0.0790 C   0  0  0  0  0  0  0  0  0  0  0  0
   -0.6230   13.7460    0.7620 C   0  0  0  0  0  0  0  0  0  0  0  0
    0.5720   12.7870    0.6870 C   0  0  1  0  0  0  0  0  0  0  0  0
    0.9400   12.3040    2.1140 C   0  0  0  0  0  0  0  0  0  0  0  0
    1.1810   13.4610    3.0790 C   0  0  0  0  0  0  0  0  0  0  0  0
   -0.0500   14.3600    3.1710 C   0  0  2  0  0  0  0  0  0  0  0  0
   -1.1120   13.6250    3.7880 O   0  0  0  0  0  0  0  0  0  0  0  0
   -0.5200   14.8990    1.7910 C   0  0  0  0  0  0  0  0  0  0  0  0
    0.5030   15.9340    1.2610 C   0  0  0  0  0  0  0  0  0  0  0  0
   -1.8480   15.6730    2.0080 C   0  0  0  0  0  0  0  0  0  0  0  0
    0.4330   11.5870   -0.3460 C   0  0  1  0  0  0  0  0  0  0  0  0
   -0.2900   10.3830    0.3310 C   0  0  0  0  0  0  0  0  0  0  0  0
    1.8710   11.0780   -0.7380 C   0  0  0  0  0  0  0  0  0  0  0  0
    2.5590   11.7840   -1.9220 C   0  0  0  0  0  0  0  0  0  0  0  0
    1.6190   11.8730   -3.1290 C   0  0  2  0  0  0  0  0  0  0  0  0
    1.2900   10.4120   -3.5880 C   0  0  0  0  0  0  0  0  0  0  0  0
    4.3990   11.9568   -3.4810 H   0  0  0  0  0  0  0  0  0  0  0  0
    5.0846   11.0546   -4.8748 H   0  0  0  0  0  0  0  0  0  0  0  0
    5.0950   12.8509   -4.8748 H   0  0  0  0  0  0  0  0  0  0  0  0
    2.8615   10.9169   -5.4114 H   0  0  0  0  0  0  0  0  0  0  0  0
    4.2412   12.9264   -6.8537 H   0  0  0  0  0  0  0  0  0  0  0  0
    2.7975   11.9263   -7.3621 H   0  0  0  0  0  0  0  0  0  0  0  0
    1.2748   13.6150   -6.6474 H   0  0  0  0  0  0  0  0  0  0  0  0
    2.6184   14.5779   -5.9030 H   0  0  0  0  0  0  0  0  0  0  0  0
    3.2026   13.8320   -8.3882 H   0  0  0  0  0  0  0  0  0  0  0  0
    0.1771   15.5952   -7.0075 H   0  0  0  0  0  0  0  0  0  0  0  0
   -0.3427   16.5527   -8.4357 H   0  0  0  0  0  0  0  0  0  0  0  0
   -0.5297   14.7662   -8.4357 H   0  0  0  0  0  0  0  0  0  0  0  0
    2.0490   16.7104  -10.3259 H   0  0  0  0  0  0  0  0  0  0  0  0
    2.2215   14.9480  -10.6271 H   0  0  0  0  0  0  0  0  0  0  0  0
    0.5920   15.7039  -10.6271 H   0  0  0  0  0  0  0  0  0  0  0  0
    2.7412   13.5188   -4.0274 H   0  0  0  0  0  0  0  0  0  0  0  0
    0.8801   14.0628   -5.4716 H   0  0  0  0  0  0  0  0  0  0  0  0
    0.6877   12.3741   -5.9885 H   0  0  0  0  0  0  0  0  0  0  0  0
   -0.9890   13.7407   -4.1200 H   0  0  0  0  0  0  0  0  0  0  0  0
   -0.9630   11.9915   -4.3272 H   0  0  0  0  0  0  0  0  0  0  0  0
    0.7122   14.2733   -1.2065 H   0  0  0  0  0  0  0  0  0  0  0  0
    1.6800   14.4858   -2.7048 H   0  0  0  0  0  0  0  0  0  0  0  0
   -0.0730   14.8778   -2.7048 H   0  0  0  0  0  0  0  0  0  0  0  0
   -0.7057   11.0411   -2.1150 H   0  0  0  0  0  0  0  0  0  0  0  0
   -2.1624   13.1675   -2.0794 H   0  0  0  0  0  0  0  0  0  0  0  0
   -2.4063   11.8255   -0.8430 H   0  0  0  0  0  0  0  0  0  0  0  0
   -2.5219   14.2917    0.0746 H   0  0  0  0  0  0  0  0  0  0  0  0
    1.4037   13.3703    0.2651 H   0  0  0  0  0  0  0  0  0  0  0  0
    0.1153   11.6877    2.5013 H   0  0  0  0  0  0  0  0  0  0  0  0
    1.8751   11.7294    2.0413 H   0  0  0  0  0  0  0  0  0  0  0  0
    1.4069   13.0566    4.0767 H   0  0  0  0  0  0  0  0  0  0  0  0
    2.0256   14.0591    2.7063 H   0  0  0  0  0  0  0  0  0  0  0  0
    0.2271   15.2385    3.7723 H   0  0  0  0  0  0  0  0  0  0  0  0
   -1.7980   14.2630    4.0490 H   0  0  0  0  0  0  0  0  0  0  0  0
    0.9947   16.4314    2.1100 H   0  0  0  0  0  0  0  0  0  0  0  0
    1.2592   15.4215    0.6483 H   0  0  0  0  0  0  0  0  0  0  0  0
   -0.0183   16.6842    0.6483 H   0  0  0  0  0  0  0  0  0  0  0  0
   -2.0364   15.7828    3.0862 H   0  0  0  0  0  0  0  0  0  0  0  0
   -1.7720   16.6683    1.5458 H   0  0  0  0  0  0  0  0  0  0  0  0
   -2.6766   15.1164    1.5458 H   0  0  0  0  0  0  0  0  0  0  0  0
   -0.2282   10.4859    1.4244 H   0  0  0  0  0  0  0  0  0  0  0  0
   -1.3459   10.3692    0.0231 H   0  0  0  0  0  0  0  0  0  0  0  0
    0.1940    9.4444    0.0231 H   0  0  0  0  0  0  0  0  0  0  0  0
    2.5184   11.1986    0.1431 H   0  0  0  0  0  0  0  0  0  0  0  0
    1.7285   10.0379   -1.0665 H   0  0  0  0  0  0  0  0  0  0  0  0
    2.8488   12.8000   -1.6160 H   0  0  0  0  0  0  0  0  0  0  0  0
    3.4460   11.2010   -2.2105 H   0  0  0  0  0  0  0  0  0  0  0  0
    1.1462    9.7735   -2.7039 H   0  0  0  0  0  0  0  0  0  0  0  0
    0.3702   10.4155   -4.1912 H   0  0  0  0  0  0  0  0  0  0  0  0
    2.1226   10.0209   -4.1912 H   0  0  0  0  0  0  0  0  0  0  0  0
  1  2  1  0
  2  3  1  0
  3  4  1  0
  4  5  1  0
  5  6  1  0
  6  7  1  0
  7  8  1  0
  7  9  1  0
  2 10  1  0
 10 11  1  0
 11 12  1  0
 12 13  1  0
 13 14  1  1
 13 15  1  0
 15 16  1  0
 16 17  1  0
 17 18  2  0
 18 19  1  0
 19 20  1  0
 20 21  1  0
 21 22  1  0
 22 23  1  0
 22 24  1  0
 24 25  1  0
 24 26  1  0
 19 27  1  0
 27 28  1  1
 27 29  1  0
 29 30  1  0
 30 31  1  0
 31 32  1  6
  7  5  1  0
 31 10  1  0
 31 13  1  0
 27 15  1  0
 24 18  1  0
  1 33  1  0
  1 34  1  0
  1 35  1  0
  2 36  1  6
  3 37  1  0
  3 38  1  0
  4 39  1  0
  4 40  1  0
  5 41  1  6
  8 42  1  0
  8 43  1  0
  8 44  1  0
  9 45  1  0
  9 46  1  0
  9 47  1  0
 10 48  1  1
 11 49  1  0
 11 50  1  0
 12 51  1  0
 12 52  1  0
 14 53  1  0
 14 54  1  0
 14 55  1  0
 15 56  1  6
 16 57  1  0
 16 58  1  0
 17 59  1  0
 19 60  1  6
 20 61  1  0
 20 62  1  0
 21 63  1  0
 21 64  1  0
 22 65  1  1
 23 66  1  0
 25 67  1  0
 25 68  1  0
 25 69  1  0
 26 70  1  0
 26 71  1  0
 26 72  1  0
 28 73  1  0
 28 74  1  0
 28 75  1  0
 29 76  1  0
 29 77  1  0
 30 78  1  0
 30 79  1  0
 32 80  1  0
 32 81  1  0
 32 82  1  0
M  END
>  <meeko>  (14) 
{"is_sidechain": [false], "intermolecular_energy": 2.731, "internal_energy": -0.839}

$$$$
EPH_relaxed_0001_pdb2pqr_Repair_222_r2_0001_out
     RDKit          3D

 82 86  0  0  0  0  0  0  0  0999 V2000
    1.4610   16.3270   -4.1720 C   0  0  0  0  0  0  0  0  0  0  0  0
    1.2230   14.8170   -4.2650 C   0  0  2  0  0  0  0  0  0  0  0  0
    0.4390   14.4300   -5.5350 C   0  0  0  0  0  0  0  0  0  0  0  0
    1.2860   14.4450   -6.8100 C   0  0  0  0  0  0  0  0  0  0  0  0
    0.9870   15.6420   -7.6610 C   0  0  2  0  0  0  0  0  0  0  0  0
    0.4470   15.3380   -8.9540 O   0  0  0  0  0  0  0  0  0  0  0  0
    1.7370   15.9690   -8.9380 C   0  0  0  0  0  0  0  0  0  0  0  0
    2.8480   15.0980   -9.4360 C   0  0  0  0  0  0  0  0  0  0  0  0
    1.7230   17.3820   -9.4340 C   0  0  0  0  0  0  0  0  0  0  0  0
    0.4810   14.3310   -3.0260 C   0  0  1  0  0  0  0  0  0  0  0  0
   -0.8960   13.6990   -3.3640 C   0  0  0  0  0  0  0  0  0  0  0  0
   -1.1170   12.5440   -2.3530 C   0  0  0  0  0  0  0  0  0  0  0  0
   -0.0330   12.7590   -1.2710 C   0  0  1  0  0  0  0  0  0  0  0  0
   -0.6170   13.8610   -0.3320 C   0  0  0  0  0  0  0  0  0  0  0  0
    0.4040   11.4900   -0.4700 C   0  0  2  0  0  0  0  0  0  0  0  0
   -0.7080   10.8290    0.3640 C   0  0  0  0  0  0  0  0  0  0  0  0
   -0.8350   11.3260    1.7660 C   0  0  0  0  0  0  0  0  0  0  0  0
    0.0860   12.0550    2.4230 C   0  0  0  0  0  0  0  0  0  0  0  0
    1.4450   12.3690    1.7850 C   0  0  1  0  0  0  0  0  0  0  0  0
    2.5750   12.1010    2.8140 C   0  0  0  0  0  0  0  0  0  0  0  0
    2.3600   12.8500    4.1260 C   0  0  0  0  0  0  0  0  0  0  0  0
    1.0250   12.4670    4.7590 C   0  0  2  0  0  0  0  0  0  0  0  0
    1.0810   11.0950    5.1610 O   0  0  0  0  0  0  0  0  0  0  0  0
   -0.1870   12.6850    3.8110 C   0  0  0  0  0  0  0  0  0  0  0  0
   -0.4310   14.2020    3.6170 C   0  0  0  0  0  0  0  0  0  0  0  0
   -1.4530   12.1290    4.5190 C   0  0  0  0  0  0  0  0  0  0  0  0
    1.7260   11.6830    0.3790 C   0  0  1  0  0  0  0  0  0  0  0  0
    2.3300   10.2610    0.5910 C   0  0  0  0  0  0  0  0  0  0  0  0
    2.8150   12.5180   -0.3920 C   0  0  0  0  0  0  0  0  0  0  0  0
    2.3100   13.6850   -1.2620 C   0  0  0  0  0  0  0  0  0  0  0  0
    1.1640   13.2340   -2.1730 C   0  0  2  0  0  0  0  0  0  0  0  0
    1.7270   12.1410   -3.1440 C   0  0  0  0  0  0  0  0  0  0  0  0
    1.5082   16.6263   -3.1146 H   0  0  0  0  0  0  0  0  0  0  0  0
    2.4101   16.5798   -4.6673 H   0  0  0  0  0  0  0  0  0  0  0  0
    0.6357   16.8595   -4.6673 H   0  0  0  0  0  0  0  0  0  0  0  0
    2.2073   14.3295   -4.3238 H   0  0  0  0  0  0  0  0  0  0  0  0
    0.0353   13.4159   -5.3983 H   0  0  0  0  0  0  0  0  0  0  0  0
   -0.3522   15.1829   -5.6660 H   0  0  0  0  0  0  0  0  0  0  0  0
    2.3498   14.4630   -6.5309 H   0  0  0  0  0  0  0  0  0  0  0  0
    1.0458   13.5427   -7.3915 H   0  0  0  0  0  0  0  0  0  0  0  0
    0.7470   16.2432   -6.7717 H   0  0  0  0  0  0  0  0  0  0  0  0
    3.3916   14.6718   -8.5800 H   0  0  0  0  0  0  0  0  0  0  0  0
    2.4302   14.2843  -10.0470 H   0  0  0  0  0  0  0  0  0  0  0  0
    3.5385   15.6979  -10.0470 H   0  0  0  0  0  0  0  0  0  0  0  0
    1.7162   18.0714   -8.5769 H   0  0  0  0  0  0  0  0  0  0  0  0
    2.6194   17.5651  -10.0447 H   0  0  0  0  0  0  0  0  0  0  0  0
    0.8232   17.5473  -10.0447 H   0  0  0  0  0  0  0  0  0  0  0  0
    0.4325   15.2723   -2.4589 H   0  0  0  0  0  0  0  0  0  0  0  0
   -1.6931   14.4501   -3.2616 H   0  0  0  0  0  0  0  0  0  0  0  0
   -0.9174   13.3279   -4.3993 H   0  0  0  0  0  0  0  0  0  0  0  0
   -2.1229   12.6016   -1.9116 H   0  0  0  0  0  0  0  0  0  0  0  0
   -1.0419   11.5545   -2.8276 H   0  0  0  0  0  0  0  0  0  0  0  0
   -0.4621   13.5686    0.7171 H   0  0  0  0  0  0  0  0  0  0  0  0
   -0.1066   14.8160   -0.5257 H   0  0  0  0  0  0  0  0  0  0  0  0
   -1.6938   13.9749   -0.5257 H   0  0  0  0  0  0  0  0  0  0  0  0
    0.6406   10.7751   -1.2718 H   0  0  0  0  0  0  0  0  0  0  0  0
   -1.6661   11.0048   -0.1470 H   0  0  0  0  0  0  0  0  0  0  0  0
   -0.4385    9.7653    0.4416 H   0  0  0  0  0  0  0  0  0  0  0  0
   -1.7590   11.0753    2.3076 H   0  0  0  0  0  0  0  0  0  0  0  0
    1.4199   13.4382    1.5279 H   0  0  0  0  0  0  0  0  0  0  0  0
    2.6110   11.0221    3.0255 H   0  0  0  0  0  0  0  0  0  0  0  0
    3.5182   12.4588    2.3755 H   0  0  0  0  0  0  0  0  0  0  0  0
    3.1739   12.5985    4.8219 H   0  0  0  0  0  0  0  0  0  0  0  0
    2.3531   13.9300    3.9172 H   0  0  0  0  0  0  0  0  0  0  0  0
    0.8691   13.1277    5.6246 H   0  0  0  0  0  0  0  0  0  0  0  0
    0.2620   10.8970    5.6460 H   0  0  0  0  0  0  0  0  0  0  0  0
   -0.5094   14.6894    4.6000 H   0  0  0  0  0  0  0  0  0  0  0  0
    0.4083   14.6397    3.0566 H   0  0  0  0  0  0  0  0  0  0  0  0
   -1.3652   14.3544    3.0566 H   0  0  0  0  0  0  0  0  0  0  0  0
   -1.3190   12.1878    5.6092 H   0  0  0  0  0  0  0  0  0  0  0  0
   -2.3294   12.7251    4.2246 H   0  0  0  0  0  0  0  0  0  0  0  0
   -1.6071   11.0804    4.2246 H   0  0  0  0  0  0  0  0  0  0  0  0
    2.4169   10.0564    1.6683 H   0  0  0  0  0  0  0  0  0  0  0  0
    1.6729    9.5106    0.1271 H   0  0  0  0  0  0  0  0  0  0  0  0
    3.3262   10.2129    0.1271 H   0  0  0  0  0  0  0  0  0  0  0  0
    3.5053   12.9353    0.3559 H   0  0  0  0  0  0  0  0  0  0  0  0
    3.2728   11.8101   -1.0986 H   0  0  0  0  0  0  0  0  0  0  0  0
    1.9524   14.4934   -0.6073 H   0  0  0  0  0  0  0  0  0  0  0  0
    3.1402   14.0380   -1.8914 H   0  0  0  0  0  0  0  0  0  0  0  0
    2.1531   11.3138   -2.5574 H   0  0  0  0  0  0  0  0  0  0  0  0
    0.9132   11.7596   -3.7782 H   0  0  0  0  0  0  0  0  0  0  0  0
    2.5100   12.5822   -3.7782 H   0  0  0  0  0  0  0  0  0  0  0  0
  1  2  1  0
  2  3  1  0
  3  4  1  0
  4  5  1  0
  5  6  1  0
  6  7  1  0
  7  8  1  0
  7  9  1  0
  2 10  1  0
 10 11  1  0
 11 12  1  0
 12 13  1  0
 13 14  1  1
 13 15  1  0
 15 16  1  0
 16 17  1  0
 17 18  2  0
 18 19  1  0
 19 20  1  0
 20 21  1  0
 21 22  1  0
 22 23  1  0
 22 24  1  0
 24 25  1  0
 24 26  1  0
 19 27  1  0
 27 28  1  1
 27 29  1  0
 29 30  1  0
 30 31  1  0
 31 32  1  6
  7  5  1  0
 31 10  1  0
 31 13  1  0
 27 15  1  0
 24 18  1  0
  1 33  1  0
  1 34  1  0
  1 35  1  0
  2 36  1  6
  3 37  1  0
  3 38  1  0
  4 39  1  0
  4 40  1  0
  5 41  1  1
  8 42  1  0
  8 43  1  0
  8 44  1  0
  9 45  1  0
  9 46  1  0
  9 47  1  0
 10 48  1  1
 11 49  1  0
 11 50  1  0
 12 51  1  0
 12 52  1  0
 14 53  1  0
 14 54  1  0
 14 55  1  0
 15 56  1  6
 16 57  1  0
 16 58  1  0
 17 59  1  0
 19 60  1  6
 20 61  1  0
 20 62  1  0
 21 63  1  0
 21 64  1  0
 22 65  1  1
 23 66  1  0
 25 67  1  0
 25 68  1  0
 25 69  1  0
 26 70  1  0
 26 71  1  0
 26 72  1  0
 28 73  1  0
 28 74  1  0
 28 75  1  0
 29 76  1  0
 29 77  1  0
 30 78  1  0
 30 79  1  0
 32 80  1  0
 32 81  1  0
 32 82  1  0
M  END
>  <meeko>  (15) 
{"is_sidechain": [false], "intermolecular_energy": 2.731, "internal_energy": -0.839}

$$$$
EPH_relaxed_0001_pdb2pqr_Repair_222_r2_0001_out
     RDKit          3D

 82 86  0  0  0  0  0  0  0  0999 V2000
    4.0720   10.0320   -3.4710 C   0  0  0  0  0  0  0  0  0  0  0  0
    3.5330   11.0580   -4.4720 C   0  0  2  0  0  0  0  0  0  0  0  0
    4.6520   11.9440   -5.0550 C   0  0  0  0  0  0  0  0  0  0  0  0
    5.8540   12.1110   -4.1210 C   0  0  0  0  0  0  0  0  0  0  0  0
    7.0580   11.3770   -4.6320 C   0  0  2  0  0  0  0  0  0  0  0  0
    6.9190    9.9510   -4.6670 O   0  0  0  0  0  0  0  0  0  0  0  0
    7.9130   10.4690   -3.7680 C   0  0  0  0  0  0  0  0  0  0  0  0
    7.6000   10.2470   -2.3210 C   0  0  0  0  0  0  0  0  0  0  0  0
    9.3190   10.1890   -4.1970 C   0  0  0  0  0  0  0  0  0  0  0  0
    2.4740   11.9280   -3.8050 C   0  0  1  0  0  0  0  0  0  0  0  0
    1.2810   12.2440   -4.7460 C   0  0  0  0  0  0  0  0  0  0  0  0
    0.0110   12.2910   -3.8580 C   0  0  0  0  0  0  0  0  0  0  0  0
    0.5490   12.3320   -2.4090 C   0  0  1  0  0  0  0  0  0  0  0  0
    0.9280   13.8260   -2.1640 C   0  0  0  0  0  0  0  0  0  0  0  0
   -0.4110   11.7900   -1.3000 C   0  0  2  0  0  0  0  0  0  0  0  0
   -1.7280   12.5690   -1.1400 C   0  0  0  0  0  0  0  0  0  0  0  0
   -1.6880   13.6960   -0.1610 C   0  0  0  0  0  0  0  0  0  0  0  0
   -0.7320   13.8920    0.7660 C   0  0  0  0  0  0  0  0  0  0  0  0
    0.3970   12.8730    0.9620 C   0  0  1  0  0  0  0  0  0  0  0  0
    0.5800   12.5870    2.4760 C   0  0  0  0  0  0  0  0  0  0  0  0
    0.7950   13.8590    3.2900 C   0  0  0  0  0  0  0  0  0  0  0  0
   -0.3760   14.8230    3.1150 C   0  0  2  0  0  0  0  0  0  0  0  0
   -1.5430   14.2410    3.7040 O   0  0  0  0  0  0  0  0  0  0  0  0
   -0.6620   15.1770    1.6290 C   0  0  0  0  0  0  0  0  0  0  0  0
    0.4780   16.0700    1.0780 C   0  0  0  0  0  0  0  0  0  0  0  0
   -1.9510   16.0410    1.5830 C   0  0  0  0  0  0  0  0  0  0  0  0
    0.2880   11.5430    0.0980 C   0  0  1  0  0  0  0  0  0  0  0  0
   -0.5810   10.4900    0.8510 C   0  0  0  0  0  0  0  0  0  0  0  0
    1.7220   10.9100   -0.0530 C   0  0  0  0  0  0  0  0  0  0  0  0
    2.5760   11.3990   -1.2380 C   0  0  0  0  0  0  0  0  0  0  0  0
    1.7760   11.3580   -2.5440 C   0  0  2  0  0  0  0  0  0  0  0  0
    1.4000    9.8640   -2.8280 C   0  0  0  0  0  0  0  0  0  0  0  0
    3.8858   10.3865   -2.4465 H   0  0  0  0  0  0  0  0  0  0  0  0
    3.5636    9.0686   -3.6238 H   0  0  0  0  0  0  0  0  0  0  0  0
    5.1538    9.9040   -3.6238 H   0  0  0  0  0  0  0  0  0  0  0  0
    3.0842   10.5009   -5.3076 H   0  0  0  0  0  0  0  0  0  0  0  0
    5.0019   11.4891   -5.9934 H   0  0  0  0  0  0  0  0  0  0  0  0
    4.2225   12.9450   -5.2086 H   0  0  0  0  0  0  0  0  0  0  0  0
    6.0964   13.1808   -4.0394 H   0  0  0  0  0  0  0  0  0  0  0  0
    5.5872   11.6920   -3.1395 H   0  0  0  0  0  0  0  0  0  0  0  0
    7.3122   12.2118   -5.3017 H   0  0  0  0  0  0  0  0  0  0  0  0
    8.3410   10.7726   -1.7007 H   0  0  0  0  0  0  0  0  0  0  0  0
    6.5949   10.6352   -2.0995 H   0  0  0  0  0  0  0  0  0  0  0  0
    7.6341    9.1701   -2.0995 H   0  0  0  0  0  0  0  0  0  0  0  0
    9.9551   10.0623   -3.3086 H   0  0  0  0  0  0  0  0  0  0  0  0
    9.3423    9.2686   -4.7989 H   0  0  0  0  0  0  0  0  0  0  0  0
    9.6931   11.0303   -4.7989 H   0  0  0  0  0  0  0  0  0  0  0  0
    3.0930   12.7957   -3.5331 H   0  0  0  0  0  0  0  0  0  0  0  0
    1.4345   13.2152   -5.2392 H   0  0  0  0  0  0  0  0  0  0  0  0
    1.1852   11.4806   -5.5322 H   0  0  0  0  0  0  0  0  0  0  0  0
   -0.5830   13.1905   -4.0772 H   0  0  0  0  0  0  0  0  0  0  0  0
   -0.6519   11.4307   -4.0325 H   0  0  0  0  0  0  0  0  0  0  0  0
    0.9770   14.0192   -1.0822 H   0  0  0  0  0  0  0  0  0  0  0  0
    1.9076   14.0351   -2.6186 H   0  0  0  0  0  0  0  0  0  0  0  0
    0.1665   14.4768   -2.6186 H   0  0  0  0  0  0  0  0  0  0  0  0
   -0.6938   10.8028   -1.6942 H   0  0  0  0  0  0  0  0  0  0  0  0
   -2.0001   12.9819   -2.1226 H   0  0  0  0  0  0  0  0  0  0  0  0
   -2.4609   11.8496   -0.7459 H   0  0  0  0  0  0  0  0  0  0  0  0
   -2.5087   14.4273   -0.2008 H   0  0  0  0  0  0  0  0  0  0  0  0
    1.3056   13.3445    0.5593 H   0  0  0  0  0  0  0  0  0  0  0  0
   -0.3202   12.0771    2.8498 H   0  0  0  0  0  0  0  0  0  0  0  0
    1.4773   11.9612    2.5914 H   0  0  0  0  0  0  0  0  0  0  0  0
    0.8877   13.5944    4.3537 H   0  0  0  0  0  0  0  0  0  0  0  0
    1.7120   14.3522    2.9352 H   0  0  0  0  0  0  0  0  0  0  0  0
   -0.1056   15.7649    3.6147 H   0  0  0  0  0  0  0  0  0  0  0  0
   -2.3180   14.6880    3.3240 H   0  0  0  0  0  0  0  0  0  0  0  0
    1.0381   16.5088    1.9169 H   0  0  0  0  0  0  0  0  0  0  0  0
    1.1565   15.4606    0.4630 H   0  0  0  0  0  0  0  0  0  0  0  0
    0.0488   16.8747    0.4630 H   0  0  0  0  0  0  0  0  0  0  0  0
   -2.2810   16.2622    2.6088 H   0  0  0  0  0  0  0  0  0  0  0  0
   -1.7426   16.9826    1.0538 H   0  0  0  0  0  0  0  0  0  0  0  0
   -2.7427   15.4905    1.0538 H   0  0  0  0  0  0  0  0  0  0  0  0
   -0.4666   10.6287    1.9362 H   0  0  0  0  0  0  0  0  0  0  0  0
   -1.6375   10.6209    0.5740 H   0  0  0  0  0  0  0  0  0  0  0  0
   -0.2520    9.4775    0.5740 H   0  0  0  0  0  0  0  0  0  0  0  0
    2.2797   11.1254    0.8703 H   0  0  0  0  0  0  0  0  0  0  0  0
    1.5460    9.8416   -0.2467 H   0  0  0  0  0  0  0  0  0  0  0  0
    2.8992   12.4328   -1.0463 H   0  0  0  0  0  0  0  0  0  0  0  0
    3.4477   10.7357   -1.3396 H   0  0  0  0  0  0  0  0  0  0  0  0
    1.2661    9.3320   -1.8746 H   0  0  0  0  0  0  0  0  0  0  0  0
    0.4640    9.8247   -3.4044 H   0  0  0  0  0  0  0  0  0  0  0  0
    2.2059    9.3863   -3.4044 H   0  0  0  0  0  0  0  0  0  0  0  0
  1  2  1  0
  2  3  1  0
  3  4  1  0
  4  5  1  0
  5  6  1  0
  6  7  1  0
  7  8  1  0
  7  9  1  0
  2 10  1  0
 10 11  1  0
 11 12  1  0
 12 13  1  0
 13 14  1  1
 13 15  1  0
 15 16  1  0
 16 17  1  0
 17 18  2  0
 18 19  1  0
 19 20  1  0
 20 21  1  0
 21 22  1  0
 22 23  1  0
 22 24  1  0
 24 25  1  0
 24 26  1  0
 19 27  1  0
 27 28  1  1
 27 29  1  0
 29 30  1  0
 30 31  1  0
 31 32  1  6
  7  5  1  0
 31 10  1  0
 31 13  1  0
 27 15  1  0
 24 18  1  0
  1 33  1  0
  1 34  1  0
  1 35  1  0
  2 36  1  6
  3 37  1  0
  3 38  1  0
  4 39  1  0
  4 40  1  0
  5 41  1  6
  8 42  1  0
  8 43  1  0
  8 44  1  0
  9 45  1  0
  9 46  1  0
  9 47  1  0
 10 48  1  1
 11 49  1  0
 11 50  1  0
 12 51  1  0
 12 52  1  0
 14 53  1  0
 14 54  1  0
 14 55  1  0
 15 56  1  6
 16 57  1  0
 16 58  1  0
 17 59  1  0
 19 60  1  6
 20 61  1  0
 20 62  1  0
 21 63  1  0
 21 64  1  0
 22 65  1  1
 23 66  1  0
 25 67  1  0
 25 68  1  0
 25 69  1  0
 26 70  1  0
 26 71  1  0
 26 72  1  0
 28 73  1  0
 28 74  1  0
 28 75  1  0
 29 76  1  0
 29 77  1  0
 30 78  1  0
 30 79  1  0
 32 80  1  0
 32 81  1  0
 32 82  1  0
M  END
>  <meeko>  (16) 
{"is_sidechain": [false], "intermolecular_energy": 2.731, "internal_energy": -0.839}

$$$$
EPH_relaxed_0001_pdb2pqr_Repair_222_r2_0001_out
     RDKit          3D

 82 86  0  0  0  0  0  0  0  0999 V2000
    3.1370   14.7860   -7.5530 C   0  0  0  0  0  0  0  0  0  0  0  0
    1.6150   14.8170   -7.3890 C   0  0  2  0  0  0  0  0  0  0  0  0
    0.9830   16.0530   -8.0600 C   0  0  0  0  0  0  0  0  0  0  0  0
    1.9080   16.7480   -9.0630 C   0  0  0  0  0  0  0  0  0  0  0  0
    1.5830   16.3630  -10.4750 C   0  0  2  0  0  0  0  0  0  0  0  0
    1.0010   15.0610  -10.6210 O   0  0  0  0  0  0  0  0  0  0  0  0
    2.2920   15.2480  -11.2220 C   0  0  0  0  0  0  0  0  0  0  0  0
    3.3830   14.4500  -10.5800 C   0  0  0  0  0  0  0  0  0  0  0  0
    2.2650   15.2600  -12.7180 C   0  0  0  0  0  0  0  0  0  0  0  0
    1.2520   14.7850   -5.9090 C   0  0  1  0  0  0  0  0  0  0  0  0
    0.0480   15.7040   -5.5690 C   0  0  0  0  0  0  0  0  0  0  0  0
   -0.7510   14.9970   -4.4440 C   0  0  0  0  0  0  0  0  0  0  0  0
    0.1880   13.8740   -3.9460 C   0  0  1  0  0  0  0  0  0  0  0  0
    1.1800   14.5830   -2.9700 C   0  0  0  0  0  0  0  0  0  0  0  0
   -0.5030   12.6430   -3.2730 C   0  0  2  0  0  0  0  0  0  0  0  0
   -1.2850   12.9570   -1.9850 C   0  0  0  0  0  0  0  0  0  0  0  0
   -0.4990   12.8520   -0.7200 C   0  0  0  0  0  0  0  0  0  0  0  0
    0.6970   12.2480   -0.5900 C   0  0  0  0  0  0  0  0  0  0  0  0
    1.3350   11.5010   -1.7690 C   0  0  1  0  0  0  0  0  0  0  0  0
    1.8590   10.1230   -1.2870 C   0  0  0  0  0  0  0  0  0  0  0  0
    2.8000   10.2400   -0.0930 C   0  0  0  0  0  0  0  0  0  0  0  0
    2.1120   10.9360    1.0790 C   0  0  2  0  0  0  0  0  0  0  0  0
    1.0610   10.0930    1.5620 O   0  0  0  0  0  0  0  0  0  0  0  0
    1.5340   12.3310    0.7100 C   0  0  0  0  0  0  0  0  0  0  0  0
    2.6950   13.3290    0.4770 C   0  0  0  0  0  0  0  0  0  0  0  0
    0.7450   12.8610    1.9370 C   0  0  0  0  0  0  0  0  0  0  0  0
    0.4460   11.3910   -3.0820 C   0  0  1  0  0  0  0  0  0  0  0  0
   -0.4800   10.1400   -2.9950 C   0  0  0  0  0  0  0  0  0  0  0  0
    1.3880   11.1600   -4.3230 C   0  0  0  0  0  0  0  0  0  0  0  0
    1.9430   12.4180   -5.0170 C   0  0  0  0  0  0  0  0  0  0  0  0
    0.8240   13.4220   -5.3100 C   0  0  2  0  0  0  0  0  0  0  0  0
   -0.1770   12.7440   -6.3070 C   0  0  0  0  0  0  0  0  0  0  0  0
    3.6125   14.7763   -6.5611 H   0  0  0  0  0  0  0  0  0  0  0  0
    3.4277   13.8817   -8.1078 H   0  0  0  0  0  0  0  0  0  0  0  0
    3.4642   15.6777   -8.1078 H   0  0  0  0  0  0  0  0  0  0  0  0
    1.2097   13.9262   -7.8912 H   0  0  0  0  0  0  0  0  0  0  0  0
    0.0733   15.7338   -8.5897 H   0  0  0  0  0  0  0  0  0  0  0  0
    0.7701   16.7792   -7.2616 H   0  0  0  0  0  0  0  0  0  0  0  0
    1.7965   17.8371   -8.9556 H   0  0  0  0  0  0  0  0  0  0  0  0
    2.9410   16.4351   -8.8511 H   0  0  0  0  0  0  0  0  0  0  0  0
    1.3730   17.4103  -10.7379 H   0  0  0  0  0  0  0  0  0  0  0  0
    3.2912   14.5171   -9.4859 H   0  0  0  0  0  0  0  0  0  0  0  0
    3.2997   13.3982  -10.8911 H   0  0  0  0  0  0  0  0  0  0  0  0
    4.3601   14.8480  -10.8911 H   0  0  0  0  0  0  0  0  0  0  0  0
    1.3109   15.6841  -13.0641 H   0  0  0  0  0  0  0  0  0  0  0  0
    3.0969   15.8731  -13.0948 H   0  0  0  0  0  0  0  0  0  0  0  0
    2.3674   14.2316  -13.0948 H   0  0  0  0  0  0  0  0  0  0  0  0
    2.2134   15.1003   -5.4774 H   0  0  0  0  0  0  0  0  0  0  0  0
    0.4061   16.6841   -5.2208 H   0  0  0  0  0  0  0  0  0  0  0  0
   -0.5822   15.8730   -6.4546 H   0  0  0  0  0  0  0  0  0  0  0  0
   -0.9811   15.7003   -3.6301 H   0  0  0  0  0  0  0  0  0  0  0  0
   -1.7162   14.6070   -4.7994 H   0  0  0  0  0  0  0  0  0  0  0  0
    0.8856   14.3726   -1.9312 H   0  0  0  0  0  0  0  0  0  0  0  0
    2.1988   14.2072   -3.1457 H   0  0  0  0  0  0  0  0  0  0  0  0
    1.1543   15.6686   -3.1457 H   0  0  0  0  0  0  0  0  0  0  0  0
   -1.2590   12.3595   -4.0201 H   0  0  0  0  0  0  0  0  0  0  0  0
   -1.6687   13.9850   -2.0624 H   0  0  0  0  0  0  0  0  0  0  0  0
   -2.0758   12.1956   -1.9159 H   0  0  0  0  0  0  0  0  0  0  0  0
   -0.9340   13.3067    0.1822 H   0  0  0  0  0  0  0  0  0  0  0  0
    2.1778   12.1238   -2.1035 H   0  0  0  0  0  0  0  0  0  0  0  0
    0.9994    9.5001   -0.9987 H   0  0  0  0  0  0  0  0  0  0  0  0
    2.4255    9.6729   -2.1156 H   0  0  0  0  0  0  0  0  0  0  0  0
    3.1117    9.2325    0.2195 H   0  0  0  0  0  0  0  0  0  0  0  0
    3.6735   10.8379   -0.3922 H   0  0  0  0  0  0  0  0  0  0  0  0
    2.8734   11.1072    1.8542 H   0  0  0  0  0  0  0  0  0  0  0  0
    1.4660    9.4100    2.1240 H   0  0  0  0  0  0  0  0  0  0  0  0
    3.0882   13.6670    1.4471 H   0  0  0  0  0  0  0  0  0  0  0  0
    3.4962   12.8333   -0.0908 H   0  0  0  0  0  0  0  0  0  0  0  0
    2.3253   14.1955   -0.0908 H   0  0  0  0  0  0  0  0  0  0  0  0
    1.2392   12.5290    2.8620 H   0  0  0  0  0  0  0  0  0  0  0  0
    0.7191   13.9603    1.9093 H   0  0  0  0  0  0  0  0  0  0  0  0
   -0.2825   12.4692    1.9093 H   0  0  0  0  0  0  0  0  0  0  0  0
   -0.6634    9.8923   -1.9391 H   0  0  0  0  0  0  0  0  0  0  0  0
   -1.4369   10.3568   -3.4923 H   0  0  0  0  0  0  0  0  0  0  0  0
    0.0069    9.2881   -3.4923 H   0  0  0  0  0  0  0  0  0  0  0  0
    2.2460   10.5617   -3.9827 H   0  0  0  0  0  0  0  0  0  0  0  0
    0.7551   10.6704   -5.0777 H   0  0  0  0  0  0  0  0  0  0  0  0
    2.6884   12.8914   -4.3611 H   0  0  0  0  0  0  0  0  0  0  0  0
    2.4033   12.1183   -5.9700 H   0  0  0  0  0  0  0  0  0  0  0  0
   -0.9575   12.2153   -5.7402 H   0  0  0  0  0  0  0  0  0  0  0  0
   -0.6417   13.5140   -6.9403 H   0  0  0  0  0  0  0  0  0  0  0  0
    0.3656   12.0267   -6.9403 H   0  0  0  0  0  0  0  0  0  0  0  0
  1  2  1  0
  2  3  1  0
  3  4  1  0
  4  5  1  0
  5  6  1  0
  6  7  1  0
  7  8  1  0
  7  9  1  0
  2 10  1  0
 10 11  1  0
 11 12  1  0
 12 13  1  0
 13 14  1  1
 13 15  1  0
 15 16  1  0
 16 17  1  0
 17 18  2  0
 18 19  1  0
 19 20  1  0
 20 21  1  0
 21 22  1  0
 22 23  1  0
 22 24  1  0
 24 25  1  0
 24 26  1  0
 19 27  1  0
 27 28  1  1
 27 29  1  0
 29 30  1  0
 30 31  1  0
 31 32  1  6
  7  5  1  0
 31 10  1  0
 31 13  1  0
 27 15  1  0
 24 18  1  0
  1 33  1  0
  1 34  1  0
  1 35  1  0
  2 36  1  6
  3 37  1  0
  3 38  1  0
  4 39  1  0
  4 40  1  0
  5 41  1  6
  8 42  1  0
  8 43  1  0
  8 44  1  0
  9 45  1  0
  9 46  1  0
  9 47  1  0
 10 48  1  1
 11 49  1  0
 11 50  1  0
 12 51  1  0
 12 52  1  0
 14 53  1  0
 14 54  1  0
 14 55  1  0
 15 56  1  6
 16 57  1  0
 16 58  1  0
 17 59  1  0
 19 60  1  6
 20 61  1  0
 20 62  1  0
 21 63  1  0
 21 64  1  0
 22 65  1  1
 23 66  1  0
 25 67  1  0
 25 68  1  0
 25 69  1  0
 26 70  1  0
 26 71  1  0
 26 72  1  0
 28 73  1  0
 28 74  1  0
 28 75  1  0
 29 76  1  0
 29 77  1  0
 30 78  1  0
 30 79  1  0
 32 80  1  0
 32 81  1  0
 32 82  1  0
M  END
>  <meeko>  (17) 
{"is_sidechain": [false], "intermolecular_energy": 2.731, "internal_energy": -0.839}

$$$$
EPH_relaxed_0001_pdb2pqr_Repair_222_r2_0001_out
     RDKit          3D

 82 86  0  0  0  0  0  0  0  0999 V2000
    0.0100   17.7810   -2.7030 C   0  0  0  0  0  0  0  0  0  0  0  0
   -0.4520   16.7930   -1.6290 C   0  0  2  0  0  0  0  0  0  0  0  0
   -0.7290   17.4880   -0.2810 C   0  0  0  0  0  0  0  0  0  0  0  0
    0.4580   17.4520    0.6860 C   0  0  0  0  0  0  0  0  0  0  0  0
    1.1750   18.7670    0.7320 C   0  0  2  0  0  0  0  0  0  0  0  0
    1.0180   19.5760   -0.4410 O   0  0  0  0  0  0  0  0  0  0  0  0
    2.3490   19.1110   -0.1650 C   0  0  0  0  0  0  0  0  0  0  0  0
    2.8740   18.1360   -1.1720 C   0  0  0  0  0  0  0  0  0  0  0  0
    3.2880   20.1940    0.2680 C   0  0  0  0  0  0  0  0  0  0  0  0
    0.5940   15.6990   -1.4450 C   0  0  1  0  0  0  0  0  0  0  0  0
    0.5460   15.0580   -0.0320 C   0  0  0  0  0  0  0  0  0  0  0  0
    0.9010   13.5590   -0.2080 C   0  0  0  0  0  0  0  0  0  0  0  0
    1.4610   13.4580   -1.6470 C   0  0  1  0  0  0  0  0  0  0  0  0
    2.9450   13.9260   -1.5340 C   0  0  0  0  0  0  0  0  0  0  0  0
    1.3470   12.0580   -2.3350 C   0  0  2  0  0  0  0  0  0  0  0  0
    2.1250   10.9260   -1.6430 C   0  0  0  0  0  0  0  0  0  0  0  0
    3.5280   10.7330   -2.1170 C   0  0  0  0  0  0  0  0  0  0  0  0
    4.0480   11.2440   -3.2480 C   0  0  0  0  0  0  0  0  0  0  0  0
    3.1720   12.0260   -4.2350 C   0  0  1  0  0  0  0  0  0  0  0  0
    3.4470   11.5280   -5.6790 C   0  0  0  0  0  0  0  0  0  0  0  0
    4.9270   11.5820   -6.0440 C   0  0  0  0  0  0  0  0  0  0  0  0
    5.7590   10.7460   -5.0740 C   0  0  2  0  0  0  0  0  0  0  0  0
    5.4210    9.3660   -5.2480 O   0  0  0  0  0  0  0  0  0  0  0  0
    5.5560   11.1500   -3.5870 C   0  0  0  0  0  0  0  0  0  0  0  0
    6.1990   12.5360   -3.3320 C   0  0  0  0  0  0  0  0  0  0  0  0
    6.3400   10.1400   -2.7070 C   0  0  0  0  0  0  0  0  0  0  0  0
    1.6200   12.0790   -3.8940 C   0  0  1  0  0  0  0  0  0  0  0  0
    0.9020   10.8290   -4.4880 C   0  0  0  0  0  0  0  0  0  0  0  0
    0.9820   13.3340   -4.5970 C   0  0  0  0  0  0  0  0  0  0  0  0
    1.0180   14.6620   -3.8160 C   0  0  0  0  0  0  0  0  0  0  0  0
    0.5090   14.4690   -2.3840 C   0  0  2  0  0  0  0  0  0  0  0  0
   -0.9890   14.0200   -2.4650 C   0  0  0  0  0  0  0  0  0  0  0  0
    0.4289   18.6768   -2.2213 H   0  0  0  0  0  0  0  0  0  0  0  0
    0.7801   17.3076   -3.3298 H   0  0  0  0  0  0  0  0  0  0  0  0
   -0.8470   18.0685   -3.3298 H   0  0  0  0  0  0  0  0  0  0  0  0
   -1.3982   16.3495   -1.9725 H   0  0  0  0  0  0  0  0  0  0  0  0
   -0.9841   18.5396   -0.4785 H   0  0  0  0  0  0  0  0  0  0  0  0
   -1.5521   16.9394    0.2002 H   0  0  0  0  0  0  0  0  0  0  0  0
    0.0895   17.2114    1.6941 H   0  0  0  0  0  0  0  0  0  0  0  0
    1.1656   16.6876    0.3323 H   0  0  0  0  0  0  0  0  0  0  0  0
    1.0344   18.8324    1.8210 H   0  0  0  0  0  0  0  0  0  0  0  0
    3.3334   17.2828   -0.6514 H   0  0  0  0  0  0  0  0  0  0  0  0
    2.0464   17.7785   -1.8023 H   0  0  0  0  0  0  0  0  0  0  0  0
    3.6280   18.6301   -1.8023 H   0  0  0  0  0  0  0  0  0  0  0  0
    3.3215   20.2326    1.3668 H   0  0  0  0  0  0  0  0  0  0  0  0
    4.2948   19.9841   -0.1224 H   0  0  0  0  0  0  0  0  0  0  0  0
    2.9376   21.1609   -0.1224 H   0  0  0  0  0  0  0  0  0  0  0  0
    1.5049   16.2763   -1.6618 H   0  0  0  0  0  0  0  0  0  0  0  0
    1.2771   15.5452    0.6299 H   0  0  0  0  0  0  0  0  0  0  0  0
   -0.4488   15.1774    0.4221 H   0  0  0  0  0  0  0  0  0  0  0  0
    1.6594   13.2505    0.5266 H   0  0  0  0  0  0  0  0  0  0  0  0
    0.0322   12.9029   -0.0510 H   0  0  0  0  0  0  0  0  0  0  0  0
    3.2221   14.0134   -0.4731 H   0  0  0  0  0  0  0  0  0  0  0  0
    3.5997   13.1907   -2.0246 H   0  0  0  0  0  0  0  0  0  0  0  0
    3.0595   14.9038   -2.0246 H   0  0  0  0  0  0  0  0  0  0  0  0
    0.2829   11.8138   -2.2003 H   0  0  0  0  0  0  0  0  0  0  0  0
    2.1575   11.1453   -0.5656 H   0  0  0  0  0  0  0  0  0  0  0  0
    1.5908    9.9961   -1.8877 H   0  0  0  0  0  0  0  0  0  0  0  0
    4.1923   10.1216   -1.4886 H   0  0  0  0  0  0  0  0  0  0  0  0
    3.4732   13.0796   -4.1392 H   0  0  0  0  0  0  0  0  0  0  0  0
    3.1002   10.4877   -5.7653 H   0  0  0  0  0  0  0  0  0  0  0  0
    2.9080   12.1929   -6.3700 H   0  0  0  0  0  0  0  0  0  0  0  0
    5.0610   11.1904   -7.0632 H   0  0  0  0  0  0  0  0  0  0  0  0
    5.2651   12.6272   -5.9861 H   0  0  0  0  0  0  0  0  0  0  0  0
    6.8186   10.9282   -5.3065 H   0  0  0  0  0  0  0  0  0  0  0  0
    5.3760    8.9610   -4.3660 H   0  0  0  0  0  0  0  0  0  0  0  0
    6.2794   12.7092   -2.2487 H   0  0  0  0  0  0  0  0  0  0  0  0
    7.2019   12.5635   -3.7831 H   0  0  0  0  0  0  0  0  0  0  0  0
    5.5724   13.3195   -3.7831 H   0  0  0  0  0  0  0  0  0  0  0  0
    6.1647   10.3659   -1.6448 H   0  0  0  0  0  0  0  0  0  0  0  0
    5.9960    9.1184   -2.9263 H   0  0  0  0  0  0  0  0  0  0  0  0
    7.4150   10.2199   -2.9263 H   0  0  0  0  0  0  0  0  0  0  0  0
    0.5363   10.1924   -3.6688 H   0  0  0  0  0  0  0  0  0  0  0  0
    0.0527   11.1537   -5.1071 H   0  0  0  0  0  0  0  0  0  0  0  0
    1.6104   10.2590   -5.1071 H   0  0  0  0  0  0  0  0  0  0  0  0
    1.5163   13.4914   -5.5455 H   0  0  0  0  0  0  0  0  0  0  0  0
   -0.0857   13.0920   -4.7035 H   0  0  0  0  0  0  0  0  0  0  0  0
    2.0532   15.0324   -3.7832 H   0  0  0  0  0  0  0  0  0  0  0  0
    0.3661   15.3868   -4.3256 H   0  0  0  0  0  0  0  0  0  0  0  0
   -1.3911   13.8995   -1.4483 H   0  0  0  0  0  0  0  0  0  0  0  0
   -1.5719   14.7829   -3.0018 H   0  0  0  0  0  0  0  0  0  0  0  0
   -1.0562   13.0622   -3.0018 H   0  0  0  0  0  0  0  0  0  0  0  0
  1  2  1  0
  2  3  1  0
  3  4  1  0
  4  5  1  0
  5  6  1  0
  6  7  1  0
  7  8  1  0
  7  9  1  0
  2 10  1  0
 10 11  1  0
 11 12  1  0
 12 13  1  0
 13 14  1  1
 13 15  1  0
 15 16  1  0
 16 17  1  0
 17 18  2  0
 18 19  1  0
 19 20  1  0
 20 21  1  0
 21 22  1  0
 22 23  1  0
 22 24  1  0
 24 25  1  0
 24 26  1  0
 19 27  1  0
 27 28  1  6
 27 29  1  0
 29 30  1  0
 30 31  1  0
 31 32  1  6
  7  5  1  0
 31 10  1  0
 31 13  1  0
 27 15  1  0
 24 18  1  0
  1 33  1  0
  1 34  1  0
  1 35  1  0
  2 36  1  6
  3 37  1  0
  3 38  1  0
  4 39  1  0
  4 40  1  0
  5 41  1  1
  8 42  1  0
  8 43  1  0
  8 44  1  0
  9 45  1  0
  9 46  1  0
  9 47  1  0
 10 48  1  1
 11 49  1  0
 11 50  1  0
 12 51  1  0
 12 52  1  0
 14 53  1  0
 14 54  1  0
 14 55  1  0
 15 56  1  6
 16 57  1  0
 16 58  1  0
 17 59  1  0
 19 60  1  6
 20 61  1  0
 20 62  1  0
 21 63  1  0
 21 64  1  0
 22 65  1  6
 23 66  1  0
 25 67  1  0
 25 68  1  0
 25 69  1  0
 26 70  1  0
 26 71  1  0
 26 72  1  0
 28 73  1  0
 28 74  1  0
 28 75  1  0
 29 76  1  0
 29 77  1  0
 30 78  1  0
 30 79  1  0
 32 80  1  0
 32 81  1  0
 32 82  1  0
M  END
>  <meeko>  (18) 
{"is_sidechain": [false], "intermolecular_energy": 2.731, "internal_energy": -0.839}

$$$$
