EPH_relaxed_0001_pdb2pqr_Repair_27_r2_0001_out
     RDKit          3D

 82 86  0  0  0  0  0  0  0  0999 V2000
   -1.7180    8.5820   -1.8860 C   0  0  0  0  0  0  0  0  0  0  0  0
   -2.1060    9.1140   -0.5040 C   0  0  2  0  0  0  0  0  0  0  0  0
   -3.5980    9.4940   -0.4260 C   0  0  0  0  0  0  0  0  0  0  0  0
   -4.5300    8.2930   -0.2420 C   0  0  0  0  0  0  0  0  0  0  0  0
   -5.2110    7.9180   -1.5230 C   0  0  2  0  0  0  0  0  0  0  0  0
   -6.2530    8.8120   -1.9320 O   0  0  0  0  0  0  0  0  0  0  0  0
   -6.6590    7.4740   -1.6030 C   0  0  0  0  0  0  0  0  0  0  0  0
   -7.5160    7.3820   -0.3790 C   0  0  0  0  0  0  0  0  0  0  0  0
   -7.0970    6.6680   -2.7860 C   0  0  0  0  0  0  0  0  0  0  0  0
   -1.2430   10.3190   -0.1500 C   0  0  1  0  0  0  0  0  0  0  0  0
   -0.2150   10.0090    0.9720 C   0  0  0  0  0  0  0  0  0  0  0  0
    1.0590   10.8310    0.6510 C   0  0  0  0  0  0  0  0  0  0  0  0
    0.6130   11.8310   -0.4420 C   0  0  1  0  0  0  0  0  0  0  0  0
   -0.0900   12.9870    0.3340 C   0  0  0  0  0  0  0  0  0  0  0  0
    1.7370   12.3690   -1.3860 C   0  0  2  0  0  0  0  0  0  0  0  0
    2.8420   13.1810   -0.6870 C   0  0  0  0  0  0  0  0  0  0  0  0
    2.5980   14.6510   -0.6030 C   0  0  0  0  0  0  0  0  0  0  0  0
    1.6790   15.3330   -1.3130 C   0  0  0  0  0  0  0  0  0  0  0  0
    0.8340   14.6340   -2.3850 C   0  0  1  0  0  0  0  0  0  0  0  0
    0.8140   15.4980   -3.6730 C   0  0  0  0  0  0  0  0  0  0  0  0
    0.3550   16.9290   -3.4110 C   0  0  0  0  0  0  0  0  0  0  0  0
    1.2550   17.6100   -2.3830 C   0  0  2  0  0  0  0  0  0  0  0  0
    2.5590   17.7740   -2.9490 O   0  0  0  0  0  0  0  0  0  0  0  0
    1.3610   16.8250   -1.0460 C   0  0  0  0  0  0  0  0  0  0  0  0
    0.0130   16.9060   -0.2870 C   0  0  0  0  0  0  0  0  0  0  0  0
    2.4070   17.5440   -0.1510 C   0  0  0  0  0  0  0  0  0  0  0  0
    1.2000   13.1140   -2.6750 C   0  0  1  0  0  0  0  0  0  0  0  0
    2.3350   13.0350   -3.7410 C   0  0  0  0  0  0  0  0  0  0  0  0
   -0.0510   12.3950   -3.3040 C   0  0  0  0  0  0  0  0  0  0  0  0
   -1.0650   11.7790   -2.3210 C   0  0  0  0  0  0  0  0  0  0  0  0
   -0.3570   10.9140   -1.2730 C   0  0  2  0  0  0  0  0  0  0  0  0
    0.3410    9.7290   -2.0230 C   0  0  0  0  0  0  0  0  0  0  0  0
   -1.0734    7.6981   -1.7709 H   0  0  0  0  0  0  0  0  0  0  0  0
   -2.6266    8.3036   -2.4401 H   0  0  0  0  0  0  0  0  0  0  0  0
   -1.1753    9.3620   -2.4401 H   0  0  0  0  0  0  0  0  0  0  0  0
   -1.9326    8.3061    0.2221 H   0  0  0  0  0  0  0  0  0  0  0  0
   -3.7386   10.1764    0.4252 H   0  0  0  0  0  0  0  0  0  0  0  0
   -3.8615    9.9613   -1.3863 H   0  0  0  0  0  0  0  0  0  0  0  0
   -3.9399    7.4350    0.1124 H   0  0  0  0  0  0  0  0  0  0  0  0
   -5.3038    8.5686    0.4896 H   0  0  0  0  0  0  0  0  0  0  0  0
   -4.2818    7.4778   -1.9140 H   0  0  0  0  0  0  0  0  0  0  0  0
   -6.8828    7.4500    0.5179 H   0  0  0  0  0  0  0  0  0  0  0  0
   -8.2433    8.2072   -0.3778 H   0  0  0  0  0  0  0  0  0  0  0  0
   -8.0516    6.4212   -0.3778 H   0  0  0  0  0  0  0  0  0  0  0  0
   -7.5956    5.7505   -2.4402 H   0  0  0  0  0  0  0  0  0  0  0  0
   -7.7978    7.2595   -3.3935 H   0  0  0  0  0  0  0  0  0  0  0  0
   -6.2195    6.4018   -3.3935 H   0  0  0  0  0  0  0  0  0  0  0  0
   -2.0310   11.0348    0.1271 H   0  0  0  0  0  0  0  0  0  0  0  0
   -0.6209   10.3061    1.9502 H   0  0  0  0  0  0  0  0  0  0  0  0
    0.0098    8.9331    1.0153 H   0  0  0  0  0  0  0  0  0  0  0  0
    1.4121   11.3652    1.5454 H   0  0  0  0  0  0  0  0  0  0  0  0
    1.8932   10.1952    0.3195 H   0  0  0  0  0  0  0  0  0  0  0  0
    0.0128   12.8179    1.4160 H   0  0  0  0  0  0  0  0  0  0  0  0
    0.3781   13.9459    0.0666 H   0  0  0  0  0  0  0  0  0  0  0  0
   -1.1567   13.0125    0.0666 H   0  0  0  0  0  0  0  0  0  0  0  0
    2.2191   11.4424   -1.7310 H   0  0  0  0  0  0  0  0  0  0  0  0
    2.9503   12.7955    0.3375 H   0  0  0  0  0  0  0  0  0  0  0  0
    3.7453   13.0576   -1.3025 H   0  0  0  0  0  0  0  0  0  0  0  0
    3.2213   15.2258    0.0978 H   0  0  0  0  0  0  0  0  0  0  0  0
   -0.1820   14.5587   -1.9701 H   0  0  0  0  0  0  0  0  0  0  0  0
    1.8294   15.5252   -4.0950 H   0  0  0  0  0  0  0  0  0  0  0  0
    0.0974   15.0402   -4.3708 H   0  0  0  0  0  0  0  0  0  0  0  0
    0.3901   17.4966   -4.3526 H   0  0  0  0  0  0  0  0  0  0  0  0
   -0.6715   16.9023   -3.0166 H   0  0  0  0  0  0  0  0  0  0  0  0
    0.8017   18.5825   -2.1405 H   0  0  0  0  0  0  0  0  0  0  0  0
    2.8080   18.7080   -2.8480 H   0  0  0  0  0  0  0  0  0  0  0  0
    0.2012   16.8947    0.7967 H   0  0  0  0  0  0  0  0  0  0  0  0
   -0.5058   17.8369   -0.5594 H   0  0  0  0  0  0  0  0  0  0  0  0
   -0.6135   16.0439   -0.5594 H   0  0  0  0  0  0  0  0  0  0  0  0
    2.1614   17.3752    0.9079 H   0  0  0  0  0  0  0  0  0  0  0  0
    3.4090   17.1429   -0.3635 H   0  0  0  0  0  0  0  0  0  0  0  0
    2.3914   18.6232   -0.3635 H   0  0  0  0  0  0  0  0  0  0  0  0
    3.3093   12.9672   -3.2349 H   0  0  0  0  0  0  0  0  0  0  0  0
    2.1859   12.1451   -4.3701 H   0  0  0  0  0  0  0  0  0  0  0  0
    2.3106   13.9370   -4.3701 H   0  0  0  0  0  0  0  0  0  0  0  0
   -0.5878   13.1353   -3.9155 H   0  0  0  0  0  0  0  0  0  0  0  0
    0.3590   11.5431   -3.8662 H   0  0  0  0  0  0  0  0  0  0  0  0
   -1.6094   12.5879   -1.8117 H   0  0  0  0  0  0  0  0  0  0  0  0
   -1.7614   11.1435   -2.8878 H   0  0  0  0  0  0  0  0  0  0  0  0
    0.7564    9.0238   -1.2880 H   0  0  0  0  0  0  0  0  0  0  0  0
   -0.3955    9.2097   -2.6538 H   0  0  0  0  0  0  0  0  0  0  0  0
    1.1523   10.1214   -2.6538 H   0  0  0  0  0  0  0  0  0  0  0  0
  1  2  1  0
  2  3  1  0
  3  4  1  0
  4  5  1  0
  5  6  1  0
  6  7  1  0
  7  8  1  0
  7  9  1  0
  2 10  1  0
 10 11  1  0
 11 12  1  0
 12 13  1  0
 13 14  1  1
 13 15  1  0
 15 16  1  0
 16 17  1  0
 17 18  2  0
 18 19  1  0
 19 20  1  0
 20 21  1  0
 21 22  1  0
 22 23  1  0
 22 24  1  0
 24 25  1  0
 24 26  1  0
 19 27  1  0
 27 28  1  6
 27 29  1  0
 29 30  1  0
 30 31  1  0
 31 32  1  6
  7  5  1  0
 31 10  1  0
 31 13  1  0
 27 15  1  0
 24 18  1  0
  1 33  1  0
  1 34  1  0
  1 35  1  0
  2 36  1  1
  3 37  1  0
  3 38  1  0
  4 39  1  0
  4 40  1  0
  5 41  1  6
  8 42  1  0
  8 43  1  0
  8 44  1  0
  9 45  1  0
  9 46  1  0
  9 47  1  0
 10 48  1  1
 11 49  1  0
 11 50  1  0
 12 51  1  0
 12 52  1  0
 14 53  1  0
 14 54  1  0
 14 55  1  0
 15 56  1  6
 16 57  1  0
 16 58  1  0
 17 59  1  0
 19 60  1  1
 20 61  1  0
 20 62  1  0
 21 63  1  0
 21 64  1  0
 22 65  1  1
 23 66  1  0
 25 67  1  0
 25 68  1  0
 25 69  1  0
 26 70  1  0
 26 71  1  0
 26 72  1  0
 28 73  1  0
 28 74  1  0
 28 75  1  0
 29 76  1  0
 29 77  1  0
 30 78  1  0
 30 79  1  0
 32 80  1  0
 32 81  1  0
 32 82  1  0
M  END
>  <meeko>  (1) 
{"is_sidechain": [false], "intermolecular_energy": 2.731, "internal_energy": -0.839}

$$$$
EPH_relaxed_0001_pdb2pqr_Repair_27_r2_0001_out
     RDKit          3D

 82 86  0  0  0  0  0  0  0  0999 V2000
    4.2120   17.4950   -0.5830 C   0  0  0  0  0  0  0  0  0  0  0  0
    2.8480   18.0720   -0.1930 C   0  0  2  0  0  0  0  0  0  0  0  0
    2.8850   18.7740    1.1790 C   0  0  0  0  0  0  0  0  0  0  0  0
    4.2670   18.7640    1.8390 C   0  0  0  0  0  0  0  0  0  0  0  0
    4.2140   19.2800    3.2450 C   0  0  2  0  0  0  0  0  0  0  0  0
    5.2640   20.1940    3.5870 O   0  0  0  0  0  0  0  0  0  0  0  0
    5.2540   18.9450    4.2980 C   0  0  0  0  0  0  0  0  0  0  0  0
    6.4210   18.0600    3.9890 C   0  0  0  0  0  0  0  0  0  0  0  0
    4.8780   19.0760    5.7410 C   0  0  0  0  0  0  0  0  0  0  0  0
    1.7990   16.9660   -0.1850 C   0  0  1  0  0  0  0  0  0  0  0  0
    0.3740   17.4920   -0.5040 C   0  0  0  0  0  0  0  0  0  0  0  0
   -0.3440   16.3780   -1.3090 C   0  0  0  0  0  0  0  0  0  0  0  0
    0.5590   15.1330   -1.1420 C   0  0  1  0  0  0  0  0  0  0  0  0
    0.1770   14.5460    0.2530 C   0  0  0  0  0  0  0  0  0  0  0  0
    0.4620   14.0540   -2.2690 C   0  0  2  0  0  0  0  0  0  0  0  0
   -0.9180   13.3910   -2.4210 C   0  0  0  0  0  0  0  0  0  0  0  0
   -1.1260   12.1560   -1.6080 C   0  0  0  0  0  0  0  0  0  0  0  0
   -0.1550   11.4410   -1.0110 C   0  0  0  0  0  0  0  0  0  0  0  0
    1.3230   11.8030   -1.2050 C   0  0  1  0  0  0  0  0  0  0  0  0
    2.1350   10.5180   -1.5150 C   0  0  0  0  0  0  0  0  0  0  0  0
    1.9340    9.4310   -0.4640 C   0  0  0  0  0  0  0  0  0  0  0  0
    0.4590    9.0570   -0.3410 C   0  0  2  0  0  0  0  0  0  0  0  0
    0.0400    8.4290   -1.5570 O   0  0  0  0  0  0  0  0  0  0  0  0
   -0.4590   10.2740   -0.0390 C   0  0  0  0  0  0  0  0  0  0  0  0
   -0.2080   10.7680    1.4070 C   0  0  0  0  0  0  0  0  0  0  0  0
   -1.9310    9.7840   -0.0810 C   0  0  0  0  0  0  0  0  0  0  0  0
    1.6200   12.9760   -2.2350 C   0  0  1  0  0  0  0  0  0  0  0  0
    1.7340   12.3990   -3.6790 C   0  0  0  0  0  0  0  0  0  0  0  0
    3.0200   13.6130   -1.9000 C   0  0  0  0  0  0  0  0  0  0  0  0
    3.0350   14.7560   -0.8670 C   0  0  0  0  0  0  0  0  0  0  0  0
    1.9760   15.8110   -1.2020 C   0  0  2  0  0  0  0  0  0  0  0  0
    2.3460   16.4350   -2.5900 C   0  0  0  0  0  0  0  0  0  0  0  0
    4.7818   17.2540    0.3265 H   0  0  0  0  0  0  0  0  0  0  0  0
    4.0670   16.5811   -1.1778 H   0  0  0  0  0  0  0  0  0  0  0  0
    4.7669   18.2355   -1.1778 H   0  0  0  0  0  0  0  0  0  0  0  0
    2.5825   18.8305   -0.9441 H   0  0  0  0  0  0  0  0  0  0  0  0
    2.5730   19.8200    1.0424 H   0  0  0  0  0  0  0  0  0  0  0  0
    2.2077   18.2172    1.8432 H   0  0  0  0  0  0  0  0  0  0  0  0
    4.6482   17.7323    1.8521 H   0  0  0  0  0  0  0  0  0  0  0  0
    4.9294   19.4219    1.2572 H   0  0  0  0  0  0  0  0  0  0  0  0
    3.1154   19.2252    3.2493 H   0  0  0  0  0  0  0  0  0  0  0  0
    6.8774   17.7139    4.9281 H   0  0  0  0  0  0  0  0  0  0  0  0
    6.0789   17.1923    3.4059 H   0  0  0  0  0  0  0  0  0  0  0  0
    7.1643   18.6235    3.4059 H   0  0  0  0  0  0  0  0  0  0  0  0
    5.7300   18.7792    6.3703 H   0  0  0  0  0  0  0  0  0  0  0  0
    4.6094   20.1207    5.9565 H   0  0  0  0  0  0  0  0  0  0  0  0
    4.0184   18.4244    5.9565 H   0  0  0  0  0  0  0  0  0  0  0  0
    1.9356   16.5894    0.8394 H   0  0  0  0  0  0  0  0  0  0  0  0
   -0.1718   17.6970    0.4288 H   0  0  0  0  0  0  0  0  0  0  0  0
    0.4182   18.4288   -1.0788 H   0  0  0  0  0  0  0  0  0  0  0  0
   -1.3471   16.1880   -0.8996 H   0  0  0  0  0  0  0  0  0  0  0  0
   -0.4864   16.6517   -2.3648 H   0  0  0  0  0  0  0  0  0  0  0  0
    0.5928   15.1849    1.0460 H   0  0  0  0  0  0  0  0  0  0  0  0
   -0.9183   14.5096    0.3480 H   0  0  0  0  0  0  0  0  0  0  0  0
    0.5873   13.5298    0.3480 H   0  0  0  0  0  0  0  0  0  0  0  0
    0.6081   14.6517   -3.1808 H   0  0  0  0  0  0  0  0  0  0  0  0
   -1.6820   14.1251   -2.1254 H   0  0  0  0  0  0  0  0  0  0  0  0
   -0.9908   13.0782   -3.4731 H   0  0  0  0  0  0  0  0  0  0  0  0
   -2.1600   11.8008   -1.4869 H   0  0  0  0  0  0  0  0  0  0  0  0
    1.6580   12.2345   -0.2502 H   0  0  0  0  0  0  0  0  0  0  0  0
    1.8162   10.1267   -2.4924 H   0  0  0  0  0  0  0  0  0  0  0  0
    3.2011   10.7888   -1.5154 H   0  0  0  0  0  0  0  0  0  0  0  0
    2.5086    8.5390   -0.7542 H   0  0  0  0  0  0  0  0  0  0  0  0
    2.2815    9.8132    0.5072 H   0  0  0  0  0  0  0  0  0  0  0  0
    0.3629    8.3720    0.5143 H   0  0  0  0  0  0  0  0  0  0  0  0
   -0.5110    9.0660   -2.0420 H   0  0  0  0  0  0  0  0  0  0  0  0
   -0.5872   10.0216    2.1205 H   0  0  0  0  0  0  0  0  0  0  0  0
    0.8715   10.9098    1.5638 H   0  0  0  0  0  0  0  0  0  0  0  0
   -0.7299   11.7235    1.5638 H   0  0  0  0  0  0  0  0  0  0  0  0
   -2.3054    9.6594    0.9458 H   0  0  0  0  0  0  0  0  0  0  0  0
   -2.5491   10.5248   -0.6093 H   0  0  0  0  0  0  0  0  0  0  0  0
   -1.9818    8.8205   -0.6093 H   0  0  0  0  0  0  0  0  0  0  0  0
    1.9470   11.3211   -3.6274 H   0  0  0  0  0  0  0  0  0  0  0  0
    0.7866   12.5604   -4.2142 H   0  0  0  0  0  0  0  0  0  0  0  0
    2.5488   12.9085   -4.2142 H   0  0  0  0  0  0  0  0  0  0  0  0
    3.6676   12.8104   -1.5173 H   0  0  0  0  0  0  0  0  0  0  0  0
    3.3597   14.0712   -2.8406 H   0  0  0  0  0  0  0  0  0  0  0  0
    2.8277   14.3421    0.1308 H   0  0  0  0  0  0  0  0  0  0  0  0
    4.0254   15.2342   -0.8870 H   0  0  0  0  0  0  0  0  0  0  0  0
    2.9014   17.3717   -2.4346 H   0  0  0  0  0  0  0  0  0  0  0  0
    2.9708   15.7277   -3.1552 H   0  0  0  0  0  0  0  0  0  0  0  0
    1.4257   16.6439   -3.1552 H   0  0  0  0  0  0  0  0  0  0  0  0
  1  2  1  0
  2  3  1  0
  3  4  1  0
  4  5  1  0
  5  6  1  0
  6  7  1  0
  7  8  1  0
  7  9  1  0
  2 10  1  0
 10 11  1  0
 11 12  1  0
 12 13  1  0
 13 14  1  1
 13 15  1  0
 15 16  1  0
 16 17  1  0
 17 18  2  0
 18 19  1  0
 19 20  1  0
 20 21  1  0
 21 22  1  0
 22 23  1  0
 22 24  1  0
 24 25  1  0
 24 26  1  0
 19 27  1  0
 27 28  1  6
 27 29  1  0
 29 30  1  0
 30 31  1  0
 31 32  1  6
  7  5  1  0
 31 10  1  0
 31 13  1  0
 27 15  1  0
 24 18  1  0
  1 33  1  0
  1 34  1  0
  1 35  1  0
  2 36  1  6
  3 37  1  0
  3 38  1  0
  4 39  1  0
  4 40  1  0
  5 41  1  1
  8 42  1  0
  8 43  1  0
  8 44  1  0
  9 45  1  0
  9 46  1  0
  9 47  1  0
 10 48  1  1
 11 49  1  0
 11 50  1  0
 12 51  1  0
 12 52  1  0
 14 53  1  0
 14 54  1  0
 14 55  1  0
 15 56  1  6
 16 57  1  0
 16 58  1  0
 17 59  1  0
 19 60  1  1
 20 61  1  0
 20 62  1  0
 21 63  1  0
 21 64  1  0
 22 65  1  1
 23 66  1  0
 25 67  1  0
 25 68  1  0
 25 69  1  0
 26 70  1  0
 26 71  1  0
 26 72  1  0
 28 73  1  0
 28 74  1  0
 28 75  1  0
 29 76  1  0
 29 77  1  0
 30 78  1  0
 30 79  1  0
 32 80  1  0
 32 81  1  0
 32 82  1  0
M  END
>  <meeko>  (2) 
{"is_sidechain": [false], "intermolecular_energy": 2.731, "internal_energy": -0.839}

$$$$
EPH_relaxed_0001_pdb2pqr_Repair_27_r2_0001_out
     RDKit          3D

 82 86  0  0  0  0  0  0  0  0999 V2000
    2.3060   18.0890   -2.7300 C   0  0  0  0  0  0  0  0  0  0  0  0
    1.0290   17.6970   -1.9810 C   0  0  2  0  0  0  0  0  0  0  0  0
    1.2130   17.7560   -0.4510 C   0  0  0  0  0  0  0  0  0  0  0  0
    0.8520   19.1130    0.1610 C   0  0  0  0  0  0  0  0  0  0  0  0
   -0.6000   19.1860    0.5280 C   0  0  2  0  0  0  0  0  0  0  0  0
   -1.4480   18.2890   -0.2000 O   0  0  0  0  0  0  0  0  0  0  0  0
   -1.6760   19.6920   -0.4140 C   0  0  0  0  0  0  0  0  0  0  0  0
   -1.3470   20.1580   -1.7970 C   0  0  0  0  0  0  0  0  0  0  0  0
   -2.9620   20.1890    0.1700 C   0  0  0  0  0  0  0  0  0  0  0  0
    0.5890   16.2990   -2.3990 C   0  0  1  0  0  0  0  0  0  0  0  0
    0.6950   16.0730   -3.9300 C   0  0  0  0  0  0  0  0  0  0  0  0
    1.1020   14.5910   -4.1360 C   0  0  0  0  0  0  0  0  0  0  0  0
    0.8940   13.9340   -2.7520 C   0  0  1  0  0  0  0  0  0  0  0  0
   -0.6360   13.6340   -2.6760 C   0  0  0  0  0  0  0  0  0  0  0  0
    1.7480   12.6570   -2.4580 C   0  0  2  0  0  0  0  0  0  0  0  0
    1.4760   11.4620   -3.3890 C   0  0  0  0  0  0  0  0  0  0  0  0
    0.4170   10.5190   -2.9220 C   0  0  0  0  0  0  0  0  0  0  0  0
   -0.0880   10.4640   -1.6760 C   0  0  0  0  0  0  0  0  0  0  0  0
    0.4790   11.3470   -0.5570 C   0  0  1  0  0  0  0  0  0  0  0  0
    0.7020   10.4910    0.7170 C   0  0  0  0  0  0  0  0  0  0  0  0
   -0.5570    9.7420    1.1460 C   0  0  0  0  0  0  0  0  0  0  0  0
   -1.0560    8.8300    0.0280 C   0  0  2  0  0  0  0  0  0  0  0  0
   -0.0990    7.7870   -0.1790 O   0  0  0  0  0  0  0  0  0  0  0  0
   -1.3070    9.5820   -1.3100 C   0  0  0  0  0  0  0  0  0  0  0  0
   -2.5460   10.4990   -1.1670 C   0  0  0  0  0  0  0  0  0  0  0  0
   -1.6700    8.5270   -2.3890 C   0  0  0  0  0  0  0  0  0  0  0  0
    1.7530   12.2170   -0.9380 C   0  0  1  0  0  0  0  0  0  0  0  0
    3.0520   11.3810   -0.7220 C   0  0  0  0  0  0  0  0  0  0  0  0
    1.8490   13.4460    0.0400 C   0  0  0  0  0  0  0  0  0  0  0  0
    1.0800   14.7180   -0.3650 C   0  0  0  0  0  0  0  0  0  0  0  0
    1.3800   15.1010   -1.8180 C   0  0  2  0  0  0  0  0  0  0  0  0
    2.9080   15.4300   -1.9200 C   0  0  0  0  0  0  0  0  0  0  0  0
    3.0966   18.3317   -2.0047 H   0  0  0  0  0  0  0  0  0  0  0  0
    2.6329   17.2498   -3.3616 H   0  0  0  0  0  0  0  0  0  0  0  0
    2.1057   18.9670   -3.3616 H   0  0  0  0  0  0  0  0  0  0  0  0
    0.2508   18.4268   -2.2490 H   0  0  0  0  0  0  0  0  0  0  0  0
    0.5720   16.9876    0.0057 H   0  0  0  0  0  0  0  0  0  0  0  0
    2.2809   17.5863   -0.2490 H   0  0  0  0  0  0  0  0  0  0  0  0
    1.4570   19.2682    1.0665 H   0  0  0  0  0  0  0  0  0  0  0  0
    1.0566   19.8926   -0.5876 H   0  0  0  0  0  0  0  0  0  0  0  0
   -0.3483   19.4440    1.5673 H   0  0  0  0  0  0  0  0  0  0  0  0
   -0.7134   21.0554   -1.7405 H   0  0  0  0  0  0  0  0  0  0  0  0
   -0.8091   19.3626   -2.3337 H   0  0  0  0  0  0  0  0  0  0  0  0
   -2.2766   20.3986   -2.3337 H   0  0  0  0  0  0  0  0  0  0  0  0
   -2.8996   20.1649    1.2680 H   0  0  0  0  0  0  0  0  0  0  0  0
   -3.1418   21.2214   -0.1645 H   0  0  0  0  0  0  0  0  0  0  0  0
   -3.7894   19.5459   -0.1645 H   0  0  0  0  0  0  0  0  0  0  0  0
   -0.4362   16.3013   -2.0002 H   0  0  0  0  0  0  0  0  0  0  0  0
   -0.2750   16.2697   -4.4101 H   0  0  0  0  0  0  0  0  0  0  0  0
    1.4347   16.7520   -4.3793 H   0  0  0  0  0  0  0  0  0  0  0  0
    0.4617   14.1139   -4.8926 H   0  0  0  0  0  0  0  0  0  0  0  0
    2.1365   14.4884   -4.4955 H   0  0  0  0  0  0  0  0  0  0  0  0
   -0.9458   13.5732   -1.6223 H   0  0  0  0  0  0  0  0  0  0  0  0
   -1.1930   14.4400   -3.1761 H   0  0  0  0  0  0  0  0  0  0  0  0
   -0.8473   12.6773   -3.1761 H   0  0  0  0  0  0  0  0  0  0  0  0
    2.7677   12.9944   -2.6956 H   0  0  0  0  0  0  0  0  0  0  0  0
    1.1713   11.8571   -4.3693 H   0  0  0  0  0  0  0  0  0  0  0  0
    2.4095   10.8809   -3.4196 H   0  0  0  0  0  0  0  0  0  0  0  0
    0.0153    9.8085   -3.6594 H   0  0  0  0  0  0  0  0  0  0  0  0
   -0.2837   12.1151   -0.3613 H   0  0  0  0  0  0  0  0  0  0  0  0
    1.4968    9.7580    0.5148 H   0  0  0  0  0  0  0  0  0  0  0  0
    0.9794   11.1735    1.5338 H   0  0  0  0  0  0  0  0  0  0  0  0
   -0.3289    9.1327    2.0330 H   0  0  0  0  0  0  0  0  0  0  0  0
   -1.3420   10.4773    1.3764 H   0  0  0  0  0  0  0  0  0  0  0  0
   -2.0265    8.4208    0.3452 H   0  0  0  0  0  0  0  0  0  0  0  0
   -0.4830    6.9630    0.1670 H   0  0  0  0  0  0  0  0  0  0  0  0
   -2.7625   10.6592   -0.1005 H   0  0  0  0  0  0  0  0  0  0  0  0
   -2.3437   11.4666   -1.6495 H   0  0  0  0  0  0  0  0  0  0  0  0
   -3.4123   10.0228   -1.6495 H   0  0  0  0  0  0  0  0  0  0  0  0
   -1.9903    7.5960   -1.8984 H   0  0  0  0  0  0  0  0  0  0  0  0
   -2.4877    8.9109   -3.0166 H   0  0  0  0  0  0  0  0  0  0  0  0
   -0.7892    8.3264   -3.0166 H   0  0  0  0  0  0  0  0  0  0  0  0
    3.2366   11.2622    0.3559 H   0  0  0  0  0  0  0  0  0  0  0  0
    2.9317   10.3904   -1.1848 H   0  0  0  0  0  0  0  0  0  0  0  0
    3.9038   11.9009   -1.1848 H   0  0  0  0  0  0  0  0  0  0  0  0
    1.4655   13.1229    1.0190 H   0  0  0  0  0  0  0  0  0  0  0  0
    2.9099   13.7368    0.0334 H   0  0  0  0  0  0  0  0  0  0  0  0
    0.0006   14.5359   -0.2564 H   0  0  0  0  0  0  0  0  0  0  0  0
    1.3988   15.5436    0.2883 H   0  0  0  0  0  0  0  0  0  0  0  0
    3.3317   15.5212   -0.9090 H   0  0  0  0  0  0  0  0  0  0  0  0
    3.4217   14.6219   -2.4613 H   0  0  0  0  0  0  0  0  0  0  0  0
    3.0436   16.3779   -2.4613 H   0  0  0  0  0  0  0  0  0  0  0  0
  1  2  1  0
  2  3  1  0
  3  4  1  0
  4  5  1  0
  5  6  1  0
  6  7  1  0
  7  8  1  0
  7  9  1  0
  2 10  1  0
 10 11  1  0
 11 12  1  0
 12 13  1  0
 13 14  1  1
 13 15  1  0
 15 16  1  0
 16 17  1  0
 17 18  2  0
 18 19  1  0
 19 20  1  0
 20 21  1  0
 21 22  1  0
 22 23  1  0
 22 24  1  0
 24 25  1  0
 24 26  1  0
 19 27  1  0
 27 28  1  6
 27 29  1  0
 29 30  1  0
 30 31  1  0
 31 32  1  1
  7  5  1  0
 31 10  1  0
 31 13  1  0
 27 15  1  0
 24 18  1  0
  1 33  1  0
  1 34  1  0
  1 35  1  0
  2 36  1  6
  3 37  1  0
  3 38  1  0
  4 39  1  0
  4 40  1  0
  5 41  1  1
  8 42  1  0
  8 43  1  0
  8 44  1  0
  9 45  1  0
  9 46  1  0
  9 47  1  0
 10 48  1  1
 11 49  1  0
 11 50  1  0
 12 51  1  0
 12 52  1  0
 14 53  1  0
 14 54  1  0
 14 55  1  0
 15 56  1  6
 16 57  1  0
 16 58  1  0
 17 59  1  0
 19 60  1  1
 20 61  1  0
 20 62  1  0
 21 63  1  0
 21 64  1  0
 22 65  1  1
 23 66  1  0
 25 67  1  0
 25 68  1  0
 25 69  1  0
 26 70  1  0
 26 71  1  0
 26 72  1  0
 28 73  1  0
 28 74  1  0
 28 75  1  0
 29 76  1  0
 29 77  1  0
 30 78  1  0
 30 79  1  0
 32 80  1  0
 32 81  1  0
 32 82  1  0
M  END
>  <meeko>  (3) 
{"is_sidechain": [false], "intermolecular_energy": 2.731, "internal_energy": -0.839}

$$$$
EPH_relaxed_0001_pdb2pqr_Repair_27_r2_0001_out
     RDKit          3D

 82 86  0  0  0  0  0  0  0  0999 V2000
    0.4060   18.4440    0.0080 C   0  0  0  0  0  0  0  0  0  0  0  0
    1.4920   17.3870   -0.2120 C   0  0  2  0  0  0  0  0  0  0  0  0
    2.7060   17.9510   -0.9760 C   0  0  0  0  0  0  0  0  0  0  0  0
    3.9390   18.1720   -0.0960 C   0  0  0  0  0  0  0  0  0  0  0  0
    3.5630   18.6420    1.2770 C   0  0  2  0  0  0  0  0  0  0  0  0
    3.8020   20.0350    1.5200 O   0  0  0  0  0  0  0  0  0  0  0  0
    4.5740   19.1120    2.3060 C   0  0  0  0  0  0  0  0  0  0  0  0
    6.0400   19.1350    2.0070 C   0  0  0  0  0  0  0  0  0  0  0  0
    4.1880   19.0840    3.7530 C   0  0  0  0  0  0  0  0  0  0  0  0
    0.9110   16.1940   -0.9630 C   0  0  1  0  0  0  0  0  0  0  0  0
    0.7500   16.4670   -2.4830 C   0  0  0  0  0  0  0  0  0  0  0  0
    1.0350   15.1280   -3.2100 C   0  0  0  0  0  0  0  0  0  0  0  0
    1.0220   14.0640   -2.0880 C   0  0  1  0  0  0  0  0  0  0  0  0
   -0.4880   13.7560   -1.8440 C   0  0  0  0  0  0  0  0  0  0  0  0
    1.8400   12.7600   -2.3620 C   0  0  2  0  0  0  0  0  0  0  0  0
    1.3530   11.9230   -3.5570 C   0  0  0  0  0  0  0  0  0  0  0  0
    0.3350   10.8810   -3.2330 C   0  0  0  0  0  0  0  0  0  0  0  0
    0.0400   10.4320   -1.9980 C   0  0  0  0  0  0  0  0  0  0  0  0
    0.8320   10.9140   -0.7760 C   0  0  1  0  0  0  0  0  0  0  0  0
    1.2140    9.6960    0.1060 C   0  0  0  0  0  0  0  0  0  0  0  0
    0.0050    8.8500    0.4910 C   0  0  0  0  0  0  0  0  0  0  0  0
   -0.7230    8.3420   -0.7510 C   0  0  2  0  0  0  0  0  0  0  0  0
    0.1280    7.4180   -1.4380 O   0  0  0  0  0  0  0  0  0  0  0  0
   -1.1480    9.4800   -1.7210 C   0  0  0  0  0  0  0  0  0  0  0  0
   -2.2940   10.3040   -1.0840 C   0  0  0  0  0  0  0  0  0  0  0  0
   -1.7430    8.8230   -2.9950 C   0  0  0  0  0  0  0  0  0  0  0  0
    2.0730   11.8590   -1.0820 C   0  0  1  0  0  0  0  0  0  0  0  0
    3.3400   10.9980   -1.3680 C   0  0  0  0  0  0  0  0  0  0  0  0
    2.3970   12.7140    0.2000 C   0  0  0  0  0  0  0  0  0  0  0  0
    1.6430   14.0490    0.3540 C   0  0  0  0  0  0  0  0  0  0  0  0
    1.7200   14.8730   -0.9340 C   0  0  2  0  0  0  0  0  0  0  0  0
    3.2260   15.2170   -1.1930 C   0  0  0  0  0  0  0  0  0  0  0  0
    0.2527   18.5932    1.0870 H   0  0  0  0  0  0  0  0  0  0  0  0
    0.7190   19.3927   -0.4525 H   0  0  0  0  0  0  0  0  0  0  0  0
   -0.5339   18.1054   -0.4525 H   0  0  0  0  0  0  0  0  0  0  0  0
    1.8468   17.0660    0.7785 H   0  0  0  0  0  0  0  0  0  0  0  0
    2.9722   17.2438   -1.7754 H   0  0  0  0  0  0  0  0  0  0  0  0
    2.4101   18.9355   -1.3675 H   0  0  0  0  0  0  0  0  0  0  0  0
    4.4901   17.2239   -0.0098 H   0  0  0  0  0  0  0  0  0  0  0  0
    4.5611   18.9481   -0.5658 H   0  0  0  0  0  0  0  0  0  0  0  0
    2.7433   17.9102    1.3286 H   0  0  0  0  0  0  0  0  0  0  0  0
    6.6064   19.1439    2.9499 H   0  0  0  0  0  0  0  0  0  0  0  0
    6.3097   18.2410    1.4256 H   0  0  0  0  0  0  0  0  0  0  0  0
    6.2815   20.0370    1.4256 H   0  0  0  0  0  0  0  0  0  0  0  0
    5.0928   19.1496    4.3752 H   0  0  0  0  0  0  0  0  0  0  0  0
    3.5289   19.9367    3.9732 H   0  0  0  0  0  0  0  0  0  0  0  0
    3.6589   18.1451    3.9732 H   0  0  0  0  0  0  0  0  0  0  0  0
   -0.0324   16.0694   -0.4112 H   0  0  0  0  0  0  0  0  0  0  0  0
   -0.2736   16.8059   -2.7007 H   0  0  0  0  0  0  0  0  0  0  0  0
    1.4416   17.2538   -2.8186 H   0  0  0  0  0  0  0  0  0  0  0  0
    0.2535   14.9165   -3.9547 H   0  0  0  0  0  0  0  0  0  0  0  0
    1.9891   15.1454   -3.7571 H   0  0  0  0  0  0  0  0  0  0  0  0
   -0.6839   13.7160   -0.7623 H   0  0  0  0  0  0  0  0  0  0  0  0
   -1.1018   14.5474   -2.2988 H   0  0  0  0  0  0  0  0  0  0  0  0
   -0.7428   12.7874   -2.2988 H   0  0  0  0  0  0  0  0  0  0  0  0
    2.8230   13.1567   -2.6560 H   0  0  0  0  0  0  0  0  0  0  0  0
    0.9136   12.6092   -4.2960 H   0  0  0  0  0  0  0  0  0  0  0  0
    2.2352   11.3812   -3.9286 H   0  0  0  0  0  0  0  0  0  0  0  0
   -0.2217   10.4424   -4.0743 H   0  0  0  0  0  0  0  0  0  0  0  0
    0.1571   11.5812   -0.2199 H   0  0  0  0  0  0  0  0  0  0  0  0
    1.9224    9.0655   -0.4514 H   0  0  0  0  0  0  0  0  0  0  0  0
    1.6597   10.0829    1.0342 H   0  0  0  0  0  0  0  0  0  0  0  0
    0.3428    7.9897    1.0874 H   0  0  0  0  0  0  0  0  0  0  0  0
   -0.6886    9.4736    1.0742 H   0  0  0  0  0  0  0  0  0  0  0  0
   -1.6498    7.8548   -0.4138 H   0  0  0  0  0  0  0  0  0  0  0  0
    0.3250    7.7940   -2.3120 H   0  0  0  0  0  0  0  0  0  0  0  0
   -2.2190   10.2501    0.0121 H   0  0  0  0  0  0  0  0  0  0  0  0
   -2.2142   11.3528   -1.4058 H   0  0  0  0  0  0  0  0  0  0  0  0
   -3.2629    9.8944   -1.4058 H   0  0  0  0  0  0  0  0  0  0  0  0
   -2.4550    8.0368   -2.7037 H   0  0  0  0  0  0  0  0  0  0  0  0
   -2.2636    9.5862   -3.5921 H   0  0  0  0  0  0  0  0  0  0  0  0
   -0.9321    8.3804   -3.5921 H   0  0  0  0  0  0  0  0  0  0  0  0
    3.7955   10.6884   -0.4158 H   0  0  0  0  0  0  0  0  0  0  0  0
    3.0546   10.1060   -1.9450 H   0  0  0  0  0  0  0  0  0  0  0  0
    4.0642   11.5918   -1.9450 H   0  0  0  0  0  0  0  0  0  0  0  0
    2.1631   12.0964    1.0797 H   0  0  0  0  0  0  0  0  0  0  0  0
    3.4566   12.9919    0.1002 H   0  0  0  0  0  0  0  0  0  0  0  0
    0.5879   13.8418    0.5862 H   0  0  0  0  0  0  0  0  0  0  0  0
    2.1101   14.6241    1.1670 H   0  0  0  0  0  0  0  0  0  0  0  0
    3.7457   15.3357   -0.2308 H   0  0  0  0  0  0  0  0  0  0  0  0
    3.6950   14.4028   -1.7650 H   0  0  0  0  0  0  0  0  0  0  0  0
    3.2949   16.1540   -1.7650 H   0  0  0  0  0  0  0  0  0  0  0  0
  1  2  1  0
  2  3  1  0
  3  4  1  0
  4  5  1  0
  5  6  1  0
  6  7  1  0
  7  8  1  0
  7  9  1  0
  2 10  1  0
 10 11  1  0
 11 12  1  0
 12 13  1  0
 13 14  1  1
 13 15  1  0
 15 16  1  0
 16 17  1  0
 17 18  2  0
 18 19  1  0
 19 20  1  0
 20 21  1  0
 21 22  1  0
 22 23  1  0
 22 24  1  0
 24 25  1  0
 24 26  1  0
 19 27  1  0
 27 28  1  6
 27 29  1  0
 29 30  1  0
 30 31  1  0
 31 32  1  6
  7  5  1  0
 31 10  1  0
 31 13  1  0
 27 15  1  0
 24 18  1  0
  1 33  1  0
  1 34  1  0
  1 35  1  0
  2 36  1  1
  3 37  1  0
  3 38  1  0
  4 39  1  0
  4 40  1  0
  5 41  1  1
  8 42  1  0
  8 43  1  0
  8 44  1  0
  9 45  1  0
  9 46  1  0
  9 47  1  0
 10 48  1  1
 11 49  1  0
 11 50  1  0
 12 51  1  0
 12 52  1  0
 14 53  1  0
 14 54  1  0
 14 55  1  0
 15 56  1  6
 16 57  1  0
 16 58  1  0
 17 59  1  0
 19 60  1  1
 20 61  1  0
 20 62  1  0
 21 63  1  0
 21 64  1  0
 22 65  1  1
 23 66  1  0
 25 67  1  0
 25 68  1  0
 25 69  1  0
 26 70  1  0
 26 71  1  0
 26 72  1  0
 28 73  1  0
 28 74  1  0
 28 75  1  0
 29 76  1  0
 29 77  1  0
 30 78  1  0
 30 79  1  0
 32 80  1  0
 32 81  1  0
 32 82  1  0
M  END
>  <meeko>  (4) 
{"is_sidechain": [false], "intermolecular_energy": 2.731, "internal_energy": -0.839}

$$$$
EPH_relaxed_0001_pdb2pqr_Repair_27_r2_0001_out
     RDKit          3D

 82 86  0  0  0  0  0  0  0  0999 V2000
    3.7560   17.6710    0.6340 C   0  0  0  0  0  0  0  0  0  0  0  0
    2.8230   18.0010   -0.5340 C   0  0  2  0  0  0  0  0  0  0  0  0
    2.1640   19.3870   -0.3780 C   0  0  0  0  0  0  0  0  0  0  0  0
    1.2260   19.4890    0.8270 C   0  0  0  0  0  0  0  0  0  0  0  0
   -0.0910   20.1010    0.4540 C   0  0  2  0  0  0  0  0  0  0  0  0
   -1.0410   20.1770    1.5250 O   0  0  0  0  0  0  0  0  0  0  0  0
   -1.3950   19.3260    0.4230 C   0  0  0  0  0  0  0  0  0  0  0  0
   -1.4460   17.8710    0.7710 C   0  0  0  0  0  0  0  0  0  0  0  0
   -2.5220   19.8540   -0.4090 C   0  0  0  0  0  0  0  0  0  0  0  0
    1.7510   16.9260   -0.6620 C   0  0  1  0  0  0  0  0  0  0  0  0
    0.4840   17.4310   -1.4030 C   0  0  0  0  0  0  0  0  0  0  0  0
   -0.0620   16.2340   -2.2230 C   0  0  0  0  0  0  0  0  0  0  0  0
    0.7020   15.0050   -1.6750 C   0  0  1  0  0  0  0  0  0  0  0  0
   -0.0530   14.6150   -0.3660 C   0  0  0  0  0  0  0  0  0  0  0  0
    0.8400   13.7880   -2.6460 C   0  0  2  0  0  0  0  0  0  0  0  0
   -0.4890   13.1360   -3.0690 C   0  0  0  0  0  0  0  0  0  0  0  0
   -0.9610   12.0240   -2.1920 C   0  0  0  0  0  0  0  0  0  0  0  0
   -0.2130   11.3770   -1.2790 C   0  0  0  0  0  0  0  0  0  0  0  0
    1.2820   11.6830   -1.1250 C   0  0  1  0  0  0  0  0  0  0  0  0
    2.0780   10.3530   -1.0530 C   0  0  0  0  0  0  0  0  0  0  0  0
    1.5590    9.4190    0.0360 C   0  0  0  0  0  0  0  0  0  0  0  0
    0.0840    9.0920   -0.1840 C   0  0  2  0  0  0  0  0  0  0  0  0
   -0.0420    8.3160   -1.3800 O   0  0  0  0  0  0  0  0  0  0  0  0
   -0.8160   10.3550   -0.2830 C   0  0  0  0  0  0  0  0  0  0  0  0
   -0.9170   11.0320    1.1060 C   0  0  0  0  0  0  0  0  0  0  0  0
   -2.2520    9.8910   -0.6460 C   0  0  0  0  0  0  0  0  0  0  0  0
    1.8930   12.7030   -2.1800 C   0  0  1  0  0  0  0  0  0  0  0  0
    2.3420   11.9380   -3.4620 C   0  0  0  0  0  0  0  0  0  0  0  0
    3.1930   13.3530   -1.5730 C   0  0  0  0  0  0  0  0  0  0  0  0
    3.0020   14.6220   -0.7210 C   0  0  0  0  0  0  0  0  0  0  0  0
    2.1210   15.6430   -1.4480 C   0  0  2  0  0  0  0  0  0  0  0  0
    2.8650   16.0710   -2.7580 C   0  0  0  0  0  0  0  0  0  0  0  0
    3.2335   17.8558    1.5842 H   0  0  0  0  0  0  0  0  0  0  0  0
    4.0530   16.6133    0.5785 H   0  0  0  0  0  0  0  0  0  0  0  0
    4.6519   18.3068    0.5785 H   0  0  0  0  0  0  0  0  0  0  0  0
    3.4341   18.0276   -1.4483 H   0  0  0  0  0  0  0  0  0  0  0  0
    2.9588   20.1388   -0.2642 H   0  0  0  0  0  0  0  0  0  0  0  0
    1.5528   19.5559   -1.2769 H   0  0  0  0  0  0  0  0  0  0  0  0
    1.0495   18.4800    1.2278 H   0  0  0  0  0  0  0  0  0  0  0  0
    1.7032   20.1340    1.5795 H   0  0  0  0  0  0  0  0  0  0  0  0
    0.3958   20.7559   -0.2836 H   0  0  0  0  0  0  0  0  0  0  0  0
   -1.4500   17.7556    1.8649 H   0  0  0  0  0  0  0  0  0  0  0  0
   -2.3603   17.4256    0.3519 H   0  0  0  0  0  0  0  0  0  0  0  0
   -0.5651   17.3627    0.3519 H   0  0  0  0  0  0  0  0  0  0  0  0
   -3.3200   20.2278    0.2494 H   0  0  0  0  0  0  0  0  0  0  0  0
   -2.1560   20.6744   -1.0439 H   0  0  0  0  0  0  0  0  0  0  0  0
   -2.9181   19.0477   -1.0439 H   0  0  0  0  0  0  0  0  0  0  0  0
    1.6021   16.6865    0.4012 H   0  0  0  0  0  0  0  0  0  0  0  0
   -0.2703   17.7681   -0.6768 H   0  0  0  0  0  0  0  0  0  0  0  0
    0.7225   18.2821   -2.0578 H   0  0  0  0  0  0  0  0  0  0  0  0
   -1.1449   16.1189   -2.0681 H   0  0  0  0  0  0  0  0  0  0  0  0
    0.0844   16.3680   -3.3049 H   0  0  0  0  0  0  0  0  0  0  0  0
    0.5425   14.9226    0.5062 H   0  0  0  0  0  0  0  0  0  0  0  0
   -1.0290   15.1217   -0.3408 H   0  0  0  0  0  0  0  0  0  0  0  0
   -0.2046   13.5258   -0.3408 H   0  0  0  0  0  0  0  0  0  0  0  0
    1.2454   14.2568   -3.5548 H   0  0  0  0  0  0  0  0  0  0  0  0
   -1.2639   13.9167   -3.0748 H   0  0  0  0  0  0  0  0  0  0  0  0
   -0.3074   12.6882   -4.0572 H   0  0  0  0  0  0  0  0  0  0  0  0
   -2.0085   11.7066   -2.3011 H   0  0  0  0  0  0  0  0  0  0  0  0
    1.3842   12.2312   -0.1768 H   0  0  0  0  0  0  0  0  0  0  0  0
    1.9986    9.8415   -2.0236 H   0  0  0  0  0  0  0  0  0  0  0  0
    3.1218   10.6012   -0.8105 H   0  0  0  0  0  0  0  0  0  0  0  0
    2.1413    8.4860    0.0178 H   0  0  0  0  0  0  0  0  0  0  0  0
    1.6665    9.9201    1.0093 H   0  0  0  0  0  0  0  0  0  0  0  0
   -0.2636    8.5283    0.6943 H   0  0  0  0  0  0  0  0  0  0  0  0
    0.6950    8.5550   -1.9660 H   0  0  0  0  0  0  0  0  0  0  0  0
   -0.8037   10.2722    1.8933 H   0  0  0  0  0  0  0  0  0  0  0  0
   -0.1212   11.7849    1.2057 H   0  0  0  0  0  0  0  0  0  0  0  0
   -1.8979   11.5198    1.2057 H   0  0  0  0  0  0  0  0  0  0  0  0
   -2.8220    9.7068    0.2766 H   0  0  0  0  0  0  0  0  0  0  0  0
   -2.7520   10.6733   -1.2359 H   0  0  0  0  0  0  0  0  0  0  0  0
   -2.1997    8.9640   -1.2359 H   0  0  0  0  0  0  0  0  0  0  0  0
    2.8793   11.0226   -3.1734 H   0  0  0  0  0  0  0  0  0  0  0  0
    1.4572   11.6712   -4.0586 H   0  0  0  0  0  0  0  0  0  0  0  0
    3.0063   12.5805   -4.0586 H   0  0  0  0  0  0  0  0  0  0  0  0
    3.6785   12.5964   -0.9390 H   0  0  0  0  0  0  0  0  0  0  0  0
    3.7859   13.6759   -2.4415 H   0  0  0  0  0  0  0  0  0  0  0  0
    2.5242   14.3477    0.2311 H   0  0  0  0  0  0  0  0  0  0  0  0
    3.9880   15.0750   -0.5405 H   0  0  0  0  0  0  0  0  0  0  0  0
    3.7911   16.6038   -2.4963 H   0  0  0  0  0  0  0  0  0  0  0  0
    3.1111   15.1764   -3.3489 H   0  0  0  0  0  0  0  0  0  0  0  0
    2.2154   16.7334   -3.3489 H   0  0  0  0  0  0  0  0  0  0  0  0
  1  2  1  0
  2  3  1  0
  3  4  1  0
  4  5  1  0
  5  6  1  0
  6  7  1  0
  7  8  1  0
  7  9  1  0
  2 10  1  0
 10 11  1  0
 11 12  1  0
 12 13  1  0
 13 14  1  1
 13 15  1  0
 15 16  1  0
 16 17  1  0
 17 18  2  0
 18 19  1  0
 19 20  1  0
 20 21  1  0
 21 22  1  0
 22 23  1  0
 22 24  1  0
 24 25  1  0
 24 26  1  0
 19 27  1  0
 27 28  1  6
 27 29  1  0
 29 30  1  0
 30 31  1  0
 31 32  1  6
  7  5  1  0
 31 10  1  0
 31 13  1  0
 27 15  1  0
 24 18  1  0
  1 33  1  0
  1 34  1  0
  1 35  1  0
  2 36  1  6
  3 37  1  0
  3 38  1  0
  4 39  1  0
  4 40  1  0
  5 41  1  6
  8 42  1  0
  8 43  1  0
  8 44  1  0
  9 45  1  0
  9 46  1  0
  9 47  1  0
 10 48  1  1
 11 49  1  0
 11 50  1  0
 12 51  1  0
 12 52  1  0
 14 53  1  0
 14 54  1  0
 14 55  1  0
 15 56  1  6
 16 57  1  0
 16 58  1  0
 17 59  1  0
 19 60  1  1
 20 61  1  0
 20 62  1  0
 21 63  1  0
 21 64  1  0
 22 65  1  1
 23 66  1  0
 25 67  1  0
 25 68  1  0
 25 69  1  0
 26 70  1  0
 26 71  1  0
 26 72  1  0
 28 73  1  0
 28 74  1  0
 28 75  1  0
 29 76  1  0
 29 77  1  0
 30 78  1  0
 30 79  1  0
 32 80  1  0
 32 81  1  0
 32 82  1  0
M  END
>  <meeko>  (5) 
{"is_sidechain": [false], "intermolecular_energy": 2.731, "internal_energy": -0.839}

$$$$
EPH_relaxed_0001_pdb2pqr_Repair_27_r2_0001_out
     RDKit          3D

 82 86  0  0  0  0  0  0  0  0999 V2000
   -4.5630    6.2640   -2.6610 C   0  0  0  0  0  0  0  0  0  0  0  0
   -5.1530    7.6080   -2.2260 C   0  0  2  0  0  0  0  0  0  0  0  0
   -4.9800    7.8570   -0.7150 C   0  0  0  0  0  0  0  0  0  0  0  0
   -3.9680    8.9570   -0.3840 C   0  0  0  0  0  0  0  0  0  0  0  0
   -2.5960    8.6160   -0.8820 C   0  0  2  0  0  0  0  0  0  0  0  0
   -1.5310    8.9650    0.0120 O   0  0  0  0  0  0  0  0  0  0  0  0
   -1.5550    9.6580   -1.2460 C   0  0  0  0  0  0  0  0  0  0  0  0
   -1.8420   11.1220   -1.1290 C   0  0  0  0  0  0  0  0  0  0  0  0
   -0.4440    9.2670   -2.1710 C   0  0  0  0  0  0  0  0  0  0  0  0
   -6.6300    7.6720   -2.5980 C   0  0  1  0  0  0  0  0  0  0  0  0
   -6.9580    6.8620   -3.8810 C   0  0  0  0  0  0  0  0  0  0  0  0
   -8.3740    6.2620   -3.6810 C   0  0  0  0  0  0  0  0  0  0  0  0
   -8.9440    7.0090   -2.4530 C   0  0  1  0  0  0  0  0  0  0  0  0
   -9.4620    8.3700   -3.0150 C   0  0  0  0  0  0  0  0  0  0  0  0
  -10.0510    6.2600   -1.6420 C   0  0  2  0  0  0  0  0  0  0  0  0
  -11.3430    5.9620   -2.4220 C   0  0  0  0  0  0  0  0  0  0  0  0
  -12.3950    7.0190   -2.3430 C   0  0  0  0  0  0  0  0  0  0  0  0
  -12.4250    8.0260   -1.4490 C   0  0  0  0  0  0  0  0  0  0  0  0
  -11.3820    8.1170   -0.3290 C   0  0  1  0  0  0  0  0  0  0  0  0
  -12.0920    8.4120    1.0180 C   0  0  0  0  0  0  0  0  0  0  0  0
  -12.9850    9.6480    0.9500 C   0  0  0  0  0  0  0  0  0  0  0  0
  -14.0460    9.4950   -0.1360 C   0  0  2  0  0  0  0  0  0  0  0  0
  -14.9480    8.4510    0.2440 O   0  0  0  0  0  0  0  0  0  0  0  0
  -13.4480    9.1850   -1.5370 C   0  0  0  0  0  0  0  0  0  0  0  0
  -12.7180   10.4380   -2.0800 C   0  0  0  0  0  0  0  0  0  0  0  0
  -14.6280    8.9150   -2.5100 C   0  0  0  0  0  0  0  0  0  0  0  0
  -10.3640    6.9000   -0.2280 C   0  0  1  0  0  0  0  0  0  0  0  0
  -10.9770    5.7650    0.6480 C   0  0  0  0  0  0  0  0  0  0  0  0
   -9.0610    7.3790    0.5130 C   0  0  0  0  0  0  0  0  0  0  0  0
   -7.9540    8.0020   -0.3590 C   0  0  0  0  0  0  0  0  0  0  0  0
   -7.6470    7.1160   -1.5700 C   0  0  2  0  0  0  0  0  0  0  0  0
   -7.1030    5.7470   -1.0360 C   0  0  0  0  0  0  0  0  0  0  0  0
   -4.3032    5.6723   -1.7708 H   0  0  0  0  0  0  0  0  0  0  0  0
   -5.3033    5.7160   -3.2624 H   0  0  0  0  0  0  0  0  0  0  0  0
   -3.6585    6.4380   -3.2624 H   0  0  0  0  0  0  0  0  0  0  0  0
   -4.6009    8.3981   -2.7559 H   0  0  0  0  0  0  0  0  0  0  0  0
   -5.9556    8.1455   -0.2967 H   0  0  0  0  0  0  0  0  0  0  0  0
   -4.5949    6.9240   -0.2777 H   0  0  0  0  0  0  0  0  0  0  0  0
   -4.2951    9.8958   -0.8549 H   0  0  0  0  0  0  0  0  0  0  0  0
   -3.9198    9.0607    0.7100 H   0  0  0  0  0  0  0  0  0  0  0  0
   -2.9844    7.7407   -1.4233 H   0  0  0  0  0  0  0  0  0  0  0  0
   -1.8967   11.4011   -0.0664 H   0  0  0  0  0  0  0  0  0  0  0  0
   -1.0388   11.6933   -1.6173 H   0  0  0  0  0  0  0  0  0  0  0  0
   -2.8015   11.3477   -1.6173 H   0  0  0  0  0  0  0  0  0  0  0  0
    0.4322    8.9586   -1.5818 H   0  0  0  0  0  0  0  0  0  0  0  0
   -0.7723    8.4304   -2.8053 H   0  0  0  0  0  0  0  0  0  0  0  0
   -0.1759   10.1248   -2.8053 H   0  0  0  0  0  0  0  0  0  0  0  0
   -6.7494    8.7613   -2.6937 H   0  0  0  0  0  0  0  0  0  0  0  0
   -6.9475    7.5236   -4.7598 H   0  0  0  0  0  0  0  0  0  0  0  0
   -6.2134    6.0700   -4.0494 H   0  0  0  0  0  0  0  0  0  0  0  0
   -8.9997    6.4391   -4.5682 H   0  0  0  0  0  0  0  0  0  0  0  0
   -8.3482    5.1725   -3.5317 H   0  0  0  0  0  0  0  0  0  0  0  0
   -9.7165    9.0387   -2.1795 H   0  0  0  0  0  0  0  0  0  0  0  0
   -8.6779    8.8347   -3.6308 H   0  0  0  0  0  0  0  0  0  0  0  0
  -10.3567    8.1957   -3.6308 H   0  0  0  0  0  0  0  0  0  0  0  0
   -9.5838    5.2821   -1.4538 H   0  0  0  0  0  0  0  0  0  0  0  0
  -11.0770    5.8259   -3.4806 H   0  0  0  0  0  0  0  0  0  0  0  0
  -11.7782    5.0648   -1.9577 H   0  0  0  0  0  0  0  0  0  0  0  0
  -13.2137    6.9712   -3.0761 H   0  0  0  0  0  0  0  0  0  0  0  0
  -10.7234    8.9567   -0.5956 H   0  0  0  0  0  0  0  0  0  0  0  0
  -12.7113    7.5439    1.2878 H   0  0  0  0  0  0  0  0  0  0  0  0
  -11.3134    8.6034    1.7712 H   0  0  0  0  0  0  0  0  0  0  0  0
  -13.4817    9.7872    1.9215 H   0  0  0  0  0  0  0  0  0  0  0  0
  -12.3595   10.5203    0.7094 H   0  0  0  0  0  0  0  0  0  0  0  0
  -14.5690   10.4587   -0.2244 H   0  0  0  0  0  0  0  0  0  0  0  0
  -15.4400    8.1840   -0.5510 H   0  0  0  0  0  0  0  0  0  0  0  0
  -12.3621   11.0489   -1.2373 H   0  0  0  0  0  0  0  0  0  0  0  0
  -11.8606   10.1255   -2.6942 H   0  0  0  0  0  0  0  0  0  0  0  0
  -13.4127   11.0297   -2.6942 H   0  0  0  0  0  0  0  0  0  0  0  0
  -15.5400    8.7063   -1.9314 H   0  0  0  0  0  0  0  0  0  0  0  0
  -14.7902    9.7992   -3.1439 H   0  0  0  0  0  0  0  0  0  0  0  0
  -14.3896    8.0482   -3.1439 H   0  0  0  0  0  0  0  0  0  0  0  0
  -10.8443    6.0108    1.7120 H   0  0  0  0  0  0  0  0  0  0  0  0
  -12.0498    5.6686    0.4250 H   0  0  0  0  0  0  0  0  0  0  0  0
  -10.4693    4.8150    0.4250 H   0  0  0  0  0  0  0  0  0  0  0  0
   -9.3596    8.1306    1.2586 H   0  0  0  0  0  0  0  0  0  0  0  0
   -8.6161    6.4645    0.9322 H   0  0  0  0  0  0  0  0  0  0  0  0
   -8.2861    8.9899   -0.7108 H   0  0  0  0  0  0  0  0  0  0  0  0
   -7.0410    8.0963    0.2473 H   0  0  0  0  0  0  0  0  0  0  0  0
   -7.1062    5.7551    0.0640 H   0  0  0  0  0  0  0  0  0  0  0  0
   -7.7451    4.9308   -1.3985 H   0  0  0  0  0  0  0  0  0  0  0  0
   -6.0758    5.5941   -1.3985 H   0  0  0  0  0  0  0  0  0  0  0  0
  1  2  1  0
  2  3  1  0
  3  4  1  0
  4  5  1  0
  5  6  1  0
  6  7  1  0
  7  8  1  0
  7  9  1  0
  2 10  1  0
 10 11  1  0
 11 12  1  0
 12 13  1  0
 13 14  1  6
 13 15  1  0
 15 16  1  0
 16 17  1  0
 17 18  2  0
 18 19  1  0
 19 20  1  0
 20 21  1  0
 21 22  1  0
 22 23  1  0
 22 24  1  0
 24 25  1  0
 24 26  1  0
 19 27  1  0
 27 28  1  1
 27 29  1  0
 29 30  1  0
 30 31  1  0
 31 32  1  1
  7  5  1  0
 31 10  1  0
 31 13  1  0
 27 15  1  0
 24 18  1  0
  1 33  1  0
  1 34  1  0
  1 35  1  0
  2 36  1  6
  3 37  1  0
  3 38  1  0
  4 39  1  0
  4 40  1  0
  5 41  1  6
  8 42  1  0
  8 43  1  0
  8 44  1  0
  9 45  1  0
  9 46  1  0
  9 47  1  0
 10 48  1  6
 11 49  1  0
 11 50  1  0
 12 51  1  0
 12 52  1  0
 14 53  1  0
 14 54  1  0
 14 55  1  0
 15 56  1  1
 16 57  1  0
 16 58  1  0
 17 59  1  0
 19 60  1  6
 20 61  1  0
 20 62  1  0
 21 63  1  0
 21 64  1  0
 22 65  1  6
 23 66  1  0
 25 67  1  0
 25 68  1  0
 25 69  1  0
 26 70  1  0
 26 71  1  0
 26 72  1  0
 28 73  1  0
 28 74  1  0
 28 75  1  0
 29 76  1  0
 29 77  1  0
 30 78  1  0
 30 79  1  0
 32 80  1  0
 32 81  1  0
 32 82  1  0
M  END
>  <meeko>  (6) 
{"is_sidechain": [false], "intermolecular_energy": 2.731, "internal_energy": -0.839}

$$$$
EPH_relaxed_0001_pdb2pqr_Repair_27_r2_0001_out
     RDKit          3D

 82 86  0  0  0  0  0  0  0  0999 V2000
   -0.1400   10.3710   -3.5420 C   0  0  0  0  0  0  0  0  0  0  0  0
    0.9560   10.1960   -2.4870 C   0  0  2  0  0  0  0  0  0  0  0  0
    0.7280    8.9450   -1.6150 C   0  0  0  0  0  0  0  0  0  0  0  0
    0.0360    9.2410   -0.2820 C   0  0  0  0  0  0  0  0  0  0  0  0
   -1.3870    8.7690   -0.2790 C   0  0  2  0  0  0  0  0  0  0  0  0
   -2.0280    8.7920   -1.5610 O   0  0  0  0  0  0  0  0  0  0  0  0
   -2.5700    9.6750   -0.5660 C   0  0  0  0  0  0  0  0  0  0  0  0
   -2.3830   11.1280   -0.8750 C   0  0  0  0  0  0  0  0  0  0  0  0
   -3.9210    9.2670   -0.0690 C   0  0  0  0  0  0  0  0  0  0  0  0
    1.0320   11.4370   -1.6060 C   0  0  1  0  0  0  0  0  0  0  0  0
    2.0900   11.3060   -0.4780 C   0  0  0  0  0  0  0  0  0  0  0  0
    2.7020   12.7150   -0.2720 C   0  0  0  0  0  0  0  0  0  0  0  0
    1.7570   13.6670   -1.0420 C   0  0  1  0  0  0  0  0  0  0  0  0
    0.5560   13.9090   -0.0740 C   0  0  0  0  0  0  0  0  0  0  0  0
    2.3820   15.0130   -1.5330 C   0  0  2  0  0  0  0  0  0  0  0  0
    2.8840   15.9460   -0.4170 C   0  0  0  0  0  0  0  0  0  0  0  0
    1.8800   16.9240    0.0950 C   0  0  0  0  0  0  0  0  0  0  0  0
    0.7210   17.2450   -0.5090 C   0  0  0  0  0  0  0  0  0  0  0  0
    0.3660   16.6720   -1.8870 C   0  0  1  0  0  0  0  0  0  0  0  0
   -0.1530   17.8110   -2.8040 C   0  0  0  0  0  0  0  0  0  0  0  0
   -1.3110   18.5830   -2.1780 C   0  0  0  0  0  0  0  0  0  0  0  0
   -0.9020   19.1870   -0.8360 C   0  0  2  0  0  0  0  0  0  0  0  0
    0.0880   20.1940   -1.0670 O   0  0  0  0  0  0  0  0  0  0  0  0
   -0.3520   18.1340    0.1670 C   0  0  0  0  0  0  0  0  0  0  0  0
   -1.5070   17.2210    0.6480 C   0  0  0  0  0  0  0  0  0  0  0  0
    0.1550   18.8920    1.4230 C   0  0  0  0  0  0  0  0  0  0  0  0
    1.4940   15.7950   -2.5840 C   0  0  1  0  0  0  0  0  0  0  0  0
    2.4620   16.7140   -3.3890 C   0  0  0  0  0  0  0  0  0  0  0  0
    0.8210   14.8320   -3.6330 C   0  0  0  0  0  0  0  0  0  0  0  0
    0.3310   13.4680   -3.1100 C   0  0  0  0  0  0  0  0  0  0  0  0
    1.4220   12.7720   -2.2900 C   0  0  2  0  0  0  0  0  0  0  0  0
    2.6340   12.4950   -3.2430 C   0  0  0  0  0  0  0  0  0  0  0  0
   -1.1080   10.5256   -3.0429 H   0  0  0  0  0  0  0  0  0  0  0  0
    0.0920   11.2435   -4.1705 H   0  0  0  0  0  0  0  0  0  0  0  0
   -0.1913    9.4697   -4.1705 H   0  0  0  0  0  0  0  0  0  0  0  0
    1.9087   10.0586   -3.0194 H   0  0  0  0  0  0  0  0  0  0  0  0
    0.1043    8.2368   -2.1802 H   0  0  0  0  0  0  0  0  0  0  0  0
    1.7203    8.5339   -1.3774 H   0  0  0  0  0  0  0  0  0  0  0  0
    0.5826    8.7304    0.5245 H   0  0  0  0  0  0  0  0  0  0  0  0
    0.0362   10.3305   -0.1301 H   0  0  0  0  0  0  0  0  0  0  0  0
   -1.1771    8.0674    0.5418 H   0  0  0  0  0  0  0  0  0  0  0  0
   -2.3099   11.6961    0.0641 H   0  0  0  0  0  0  0  0  0  0  0  0
   -1.4601   11.2631   -1.4581 H   0  0  0  0  0  0  0  0  0  0  0  0
   -3.2417   11.4923   -1.4581 H   0  0  0  0  0  0  0  0  0  0  0  0
   -3.9223    9.2666    1.0310 H   0  0  0  0  0  0  0  0  0  0  0  0
   -4.6766    9.9770   -0.4363 H   0  0  0  0  0  0  0  0  0  0  0  0
   -4.1573    8.2574   -0.4363 H   0  0  0  0  0  0  0  0  0  0  0  0
   -0.0113   11.4812   -1.2603 H   0  0  0  0  0  0  0  0  0  0  0  0
    1.6124   10.9611    0.4509 H   0  0  0  0  0  0  0  0  0  0  0  0
    2.8658   10.5743   -0.7477 H   0  0  0  0  0  0  0  0  0  0  0  0
    2.7283   12.9745    0.7966 H   0  0  0  0  0  0  0  0  0  0  0  0
    3.7396   12.7759   -0.6321 H   0  0  0  0  0  0  0  0  0  0  0  0
    0.9043   13.8388    0.9671 H   0  0  0  0  0  0  0  0  0  0  0  0
    0.1362   14.9098   -0.2536 H   0  0  0  0  0  0  0  0  0  0  0  0
   -0.2186   13.1489   -0.2536 H   0  0  0  0  0  0  0  0  0  0  0  0
    3.2826   14.6734   -2.0655 H   0  0  0  0  0  0  0  0  0  0  0  0
    3.2111   15.3211    0.4271 H   0  0  0  0  0  0  0  0  0  0  0  0
    3.6931   16.5444   -0.8612 H   0  0  0  0  0  0  0  0  0  0  0  0
    2.1066   17.4254    1.0475 H   0  0  0  0  0  0  0  0  0  0  0  0
   -0.4348   15.9380   -1.7139 H   0  0  0  0  0  0  0  0  0  0  0  0
    0.6729   18.5108   -2.9993 H   0  0  0  0  0  0  0  0  0  0  0  0
   -0.5212   17.3509   -3.7329 H   0  0  0  0  0  0  0  0  0  0  0  0
   -1.6146   19.3916   -2.8592 H   0  0  0  0  0  0  0  0  0  0  0  0
   -2.1466   17.8876   -2.0101 H   0  0  0  0  0  0  0  0  0  0  0  0
   -1.8054   19.6155   -0.3774 H   0  0  0  0  0  0  0  0  0  0  0  0
    0.7660   19.8130   -1.6510 H   0  0  0  0  0  0  0  0  0  0  0  0
   -1.5278   17.2046    1.7477 H   0  0  0  0  0  0  0  0  0  0  0  0
   -2.4637   17.6096    0.2690 H   0  0  0  0  0  0  0  0  0  0  0  0
   -1.3498   16.2004    0.2690 H   0  0  0  0  0  0  0  0  0  0  0  0
   -0.1918   18.3735    2.3290 H   0  0  0  0  0  0  0  0  0  0  0  0
    1.2546   18.9205    1.4150 H   0  0  0  0  0  0  0  0  0  0  0  0
   -0.2385   19.9192    1.4150 H   0  0  0  0  0  0  0  0  0  0  0  0
    3.0781   17.2990   -2.6903 H   0  0  0  0  0  0  0  0  0  0  0  0
    3.1139   16.0944   -4.0224 H   0  0  0  0  0  0  0  0  0  0  0  0
    1.8771   17.3972   -4.0224 H   0  0  0  0  0  0  0  0  0  0  0  0
   -0.0474   15.3571   -4.0574 H   0  0  0  0  0  0  0  0  0  0  0  0
    1.6150   14.5944   -4.3563 H   0  0  0  0  0  0  0  0  0  0  0  0
   -0.5534   13.6227   -2.4745 H   0  0  0  0  0  0  0  0  0  0  0  0
    0.0793   12.8316   -3.9712 H   0  0  0  0  0  0  0  0  0  0  0  0
    3.5328   12.2896   -2.6430 H   0  0  0  0  0  0  0  0  0  0  0  0
    2.4100   11.6249   -3.8776 H   0  0  0  0  0  0  0  0  0  0  0  0
    2.8103   13.3760   -3.8776 H   0  0  0  0  0  0  0  0  0  0  0  0
  1  2  1  0
  2  3  1  0
  3  4  1  0
  4  5  1  0
  5  6  1  0
  6  7  1  0
  7  8  1  0
  7  9  1  0
  2 10  1  0
 10 11  1  0
 11 12  1  0
 12 13  1  0
 13 14  1  1
 13 15  1  0
 15 16  1  0
 16 17  1  0
 17 18  2  0
 18 19  1  0
 19 20  1  0
 20 21  1  0
 21 22  1  0
 22 23  1  0
 22 24  1  0
 24 25  1  0
 24 26  1  0
 19 27  1  0
 27 28  1  6
 27 29  1  0
 29 30  1  0
 30 31  1  0
 31 32  1  6
  7  5  1  0
 31 10  1  0
 31 13  1  0
 27 15  1  0
 24 18  1  0
  1 33  1  0
  1 34  1  0
  1 35  1  0
  2 36  1  6
  3 37  1  0
  3 38  1  0
  4 39  1  0
  4 40  1  0
  5 41  1  1
  8 42  1  0
  8 43  1  0
  8 44  1  0
  9 45  1  0
  9 46  1  0
  9 47  1  0
 10 48  1  1
 11 49  1  0
 11 50  1  0
 12 51  1  0
 12 52  1  0
 14 53  1  0
 14 54  1  0
 14 55  1  0
 15 56  1  6
 16 57  1  0
 16 58  1  0
 17 59  1  0
 19 60  1  1
 20 61  1  0
 20 62  1  0
 21 63  1  0
 21 64  1  0
 22 65  1  1
 23 66  1  0
 25 67  1  0
 25 68  1  0
 25 69  1  0
 26 70  1  0
 26 71  1  0
 26 72  1  0
 28 73  1  0
 28 74  1  0
 28 75  1  0
 29 76  1  0
 29 77  1  0
 30 78  1  0
 30 79  1  0
 32 80  1  0
 32 81  1  0
 32 82  1  0
M  END
>  <meeko>  (7) 
{"is_sidechain": [false], "intermolecular_energy": 2.731, "internal_energy": -0.839}

$$$$
EPH_relaxed_0001_pdb2pqr_Repair_27_r2_0001_out
     RDKit          3D

 82 86  0  0  0  0  0  0  0  0999 V2000
    0.4460    8.8070   -2.3870 C   0  0  0  0  0  0  0  0  0  0  0  0
    1.1900    9.9530   -3.0800 C   0  0  2  0  0  0  0  0  0  0  0  0
    2.6890    9.9710   -2.7220 C   0  0  0  0  0  0  0  0  0  0  0  0
    3.5730   10.5900   -3.8090 C   0  0  0  0  0  0  0  0  0  0  0  0
    4.9700   10.8250   -3.3190 C   0  0  2  0  0  0  0  0  0  0  0  0
    5.5720   12.0390   -3.7870 O   0  0  0  0  0  0  0  0  0  0  0  0
    6.1870   10.8170   -4.2260 C   0  0  0  0  0  0  0  0  0  0  0  0
    6.0630   10.5670   -5.6960 C   0  0  0  0  0  0  0  0  0  0  0  0
    7.5310   10.5670   -3.6170 C   0  0  0  0  0  0  0  0  0  0  0  0
    0.5500   11.2860   -2.7110 C   0  0  1  0  0  0  0  0  0  0  0  0
   -0.8270   11.1160   -2.0160 C   0  0  0  0  0  0  0  0  0  0  0  0
   -0.9440   12.2540   -0.9690 C   0  0  0  0  0  0  0  0  0  0  0  0
    0.2060   13.2270   -1.3210 C   0  0  1  0  0  0  0  0  0  0  0  0
   -0.3440   14.0860   -2.5030 C   0  0  0  0  0  0  0  0  0  0  0  0
    0.7350   14.1220   -0.1540 C   0  0  2  0  0  0  0  0  0  0  0  0
   -0.2960   15.0980    0.4400 C   0  0  0  0  0  0  0  0  0  0  0  0
   -0.3400   16.4460   -0.2000 C   0  0  0  0  0  0  0  0  0  0  0  0
    0.6020   16.9560   -1.0150 C   0  0  0  0  0  0  0  0  0  0  0  0
    1.9030   16.1930   -1.2890 C   0  0  1  0  0  0  0  0  0  0  0  0
    3.1090   17.1600   -1.1580 C   0  0  0  0  0  0  0  0  0  0  0  0
    2.9640   18.3990   -2.0350 C   0  0  0  0  0  0  0  0  0  0  0  0
    1.6870   19.1630   -1.6920 C   0  0  2  0  0  0  0  0  0  0  0  0
    1.8120   19.7010   -0.3720 O   0  0  0  0  0  0  0  0  0  0  0  0
    0.4060   18.2880   -1.7810 C   0  0  0  0  0  0  0  0  0  0  0  0
    0.1050   17.9550   -3.2640 C   0  0  0  0  0  0  0  0  0  0  0  0
   -0.7900   19.1390   -1.2750 C   0  0  0  0  0  0  0  0  0  0  0  0
    2.1060   14.8490   -0.4650 C   0  0  1  0  0  0  0  0  0  0  0  0
    2.7650   15.1640    0.9120 C   0  0  0  0  0  0  0  0  0  0  0  0
    3.1140   13.9190   -1.2380 C   0  0  0  0  0  0  0  0  0  0  0  0
    2.5150   12.9710   -2.2950 C   0  0  0  0  0  0  0  0  0  0  0  0
    1.3230   12.1970   -1.7250 C   0  0  2  0  0  0  0  0  0  0  0  0
    1.8500   11.3070   -0.5480 C   0  0  0  0  0  0  0  0  0  0  0  0
    0.5234    8.9262   -1.2962 H   0  0  0  0  0  0  0  0  0  0  0  0
   -0.6131    8.8250   -2.6836 H   0  0  0  0  0  0  0  0  0  0  0  0
    0.8935    7.8469   -2.6836 H   0  0  0  0  0  0  0  0  0  0  0  0
    1.1115    9.7910   -4.1652 H   0  0  0  0  0  0  0  0  0  0  0  0
    2.8183   10.5514   -1.7966 H   0  0  0  0  0  0  0  0  0  0  0  0
    3.0053    8.9237   -2.6074 H   0  0  0  0  0  0  0  0  0  0  0  0
    3.6075    9.9084   -4.6716 H   0  0  0  0  0  0  0  0  0  0  0  0
    3.1404   11.5611   -4.0916 H   0  0  0  0  0  0  0  0  0  0  0  0
    4.7510   10.3074   -2.3734 H   0  0  0  0  0  0  0  0  0  0  0  0
    5.5799    9.5930   -5.8628 H   0  0  0  0  0  0  0  0  0  0  0  0
    5.4544   11.3612   -6.1529 H   0  0  0  0  0  0  0  0  0  0  0  0
    7.0636   10.5630   -6.1529 H   0  0  0  0  0  0  0  0  0  0  0  0
    7.4454   10.5829   -2.5205 H   0  0  0  0  0  0  0  0  0  0  0  0
    7.9035    9.5842   -3.9415 H   0  0  0  0  0  0  0  0  0  0  0  0
    8.2320   11.3502   -3.9415 H   0  0  0  0  0  0  0  0  0  0  0  0
    0.5127   11.7539   -3.7058 H   0  0  0  0  0  0  0  0  0  0  0  0
   -1.6371   11.1972   -2.7557 H   0  0  0  0  0  0  0  0  0  0  0  0
   -0.9082   10.1291   -1.5370 H   0  0  0  0  0  0  0  0  0  0  0  0
   -1.9182   12.7583   -1.0506 H   0  0  0  0  0  0  0  0  0  0  0  0
   -0.8734   11.8804    0.0632 H   0  0  0  0  0  0  0  0  0  0  0  0
   -0.8965   14.9490   -2.1030 H   0  0  0  0  0  0  0  0  0  0  0  0
    0.4949   14.4414   -3.1194 H   0  0  0  0  0  0  0  0  0  0  0  0
   -1.0179   13.4728   -3.1194 H   0  0  0  0  0  0  0  0  0  0  0  0
    0.9365   13.3835    0.6359 H   0  0  0  0  0  0  0  0  0  0  0  0
   -1.2921   14.6420    0.3410 H   0  0  0  0  0  0  0  0  0  0  0  0
    0.0097   15.2661    1.4832 H   0  0  0  0  0  0  0  0  0  0  0  0
   -1.2165   17.0758    0.0125 H   0  0  0  0  0  0  0  0  0  0  0  0
    1.8283   15.8281   -2.3240 H   0  0  0  0  0  0  0  0  0  0  0  0
    3.1928   17.4788   -0.1086 H   0  0  0  0  0  0  0  0  0  0  0  0
    4.0076   16.6195   -1.4903 H   0  0  0  0  0  0  0  0  0  0  0  0
    3.8311   19.0568   -1.8753 H   0  0  0  0  0  0  0  0  0  0  0  0
    2.9115   18.0810   -3.0867 H   0  0  0  0  0  0  0  0  0  0  0  0
    1.5715   19.9633   -2.4378 H   0  0  0  0  0  0  0  0  0  0  0  0
    2.7270   19.5500   -0.0780 H   0  0  0  0  0  0  0  0  0  0  0  0
   -0.6318   17.1398   -3.3145 H   0  0  0  0  0  0  0  0  0  0  0  0
   -0.2997   18.8466   -3.7652 H   0  0  0  0  0  0  0  0  0  0  0  0
    1.0329   17.6421   -3.7652 H   0  0  0  0  0  0  0  0  0  0  0  0
   -0.7971   19.1440   -0.1750 H   0  0  0  0  0  0  0  0  0  0  0  0
   -0.6894   20.1697   -1.6457 H   0  0  0  0  0  0  0  0  0  0  0  0
   -1.7308   18.7061   -1.6457 H   0  0  0  0  0  0  0  0  0  0  0  0
    2.0934   14.8430    1.7219 H   0  0  0  0  0  0  0  0  0  0  0  0
    3.7207   14.6253    0.9929 H   0  0  0  0  0  0  0  0  0  0  0  0
    2.9460   16.2460    0.9929 H   0  0  0  0  0  0  0  0  0  0  0  0
    3.8416   14.5679   -1.7474 H   0  0  0  0  0  0  0  0  0  0  0  0
    3.5430   13.2588   -0.4698 H   0  0  0  0  0  0  0  0  0  0  0  0
    2.1797   13.5623   -3.1598 H   0  0  0  0  0  0  0  0  0  0  0  0
    3.2886   12.2501   -2.5979 H   0  0  0  0  0  0  0  0  0  0  0  0
    1.5764   11.7691    0.4120 H   0  0  0  0  0  0  0  0  0  0  0  0
    1.3990   10.3060   -0.6149 H   0  0  0  0  0  0  0  0  0  0  0  0
    2.9446   11.2212   -0.6149 H   0  0  0  0  0  0  0  0  0  0  0  0
  1  2  1  0
  2  3  1  0
  3  4  1  0
  4  5  1  0
  5  6  1  0
  6  7  1  0
  7  8  1  0
  7  9  1  0
  2 10  1  0
 10 11  1  0
 11 12  1  0
 12 13  1  0
 13 14  1  6
 13 15  1  0
 15 16  1  0
 16 17  1  0
 17 18  2  0
 18 19  1  0
 19 20  1  0
 20 21  1  0
 21 22  1  0
 22 23  1  0
 22 24  1  0
 24 25  1  0
 24 26  1  0
 19 27  1  0
 27 28  1  1
 27 29  1  0
 29 30  1  0
 30 31  1  0
 31 32  1  1
  7  5  1  0
 31 10  1  0
 31 13  1  0
 27 15  1  0
 24 18  1  0
  1 33  1  0
  1 34  1  0
  1 35  1  0
  2 36  1  6
  3 37  1  0
  3 38  1  0
  4 39  1  0
  4 40  1  0
  5 41  1  1
  8 42  1  0
  8 43  1  0
  8 44  1  0
  9 45  1  0
  9 46  1  0
  9 47  1  0
 10 48  1  6
 11 49  1  0
 11 50  1  0
 12 51  1  0
 12 52  1  0
 14 53  1  0
 14 54  1  0
 14 55  1  0
 15 56  1  1
 16 57  1  0
 16 58  1  0
 17 59  1  0
 19 60  1  6
 20 61  1  0
 20 62  1  0
 21 63  1  0
 21 64  1  0
 22 65  1  6
 23 66  1  0
 25 67  1  0
 25 68  1  0
 25 69  1  0
 26 70  1  0
 26 71  1  0
 26 72  1  0
 28 73  1  0
 28 74  1  0
 28 75  1  0
 29 76  1  0
 29 77  1  0
 30 78  1  0
 30 79  1  0
 32 80  1  0
 32 81  1  0
 32 82  1  0
M  END
>  <meeko>  (8) 
{"is_sidechain": [false], "intermolecular_energy": 2.731, "internal_energy": -0.839}

$$$$
EPH_relaxed_0001_pdb2pqr_Repair_27_r2_0001_out
     RDKit          3D

 82 86  0  0  0  0  0  0  0  0999 V2000
   -3.8930    7.2100   -3.3990 C   0  0  0  0  0  0  0  0  0  0  0  0
   -3.9220    7.3070   -1.8710 C   0  0  2  0  0  0  0  0  0  0  0  0
   -5.3460    7.1350   -1.3050 C   0  0  0  0  0  0  0  0  0  0  0  0
   -6.4400    7.1510   -2.3760 C   0  0  0  0  0  0  0  0  0  0  0  0
   -7.7450    7.6450   -1.8280 C   0  0  2  0  0  0  0  0  0  0  0  0
   -8.3060    6.8280   -0.7920 O   0  0  0  0  0  0  0  0  0  0  0  0
   -9.0600    6.9110   -2.0120 C   0  0  0  0  0  0  0  0  0  0  0  0
   -9.1360    5.6230   -2.7690 C   0  0  0  0  0  0  0  0  0  0  0  0
  -10.3350    7.6850   -1.8810 C   0  0  0  0  0  0  0  0  0  0  0  0
   -3.3410    8.6430   -1.4230 C   0  0  1  0  0  0  0  0  0  0  0  0
   -3.9420    9.1350   -0.0790 C   0  0  0  0  0  0  0  0  0  0  0  0
   -2.8040    9.8680    0.6770 C   0  0  0  0  0  0  0  0  0  0  0  0
   -1.6940   10.0630   -0.3820 C   0  0  1  0  0  0  0  0  0  0  0  0
   -2.1330   11.3210   -1.1960 C   0  0  0  0  0  0  0  0  0  0  0  0
   -0.2360   10.2090    0.1630 C   0  0  2  0  0  0  0  0  0  0  0  0
    0.0050   11.4340    1.0620 C   0  0  0  0  0  0  0  0  0  0  0  0
    0.4470   12.6700    0.3510 C   0  0  0  0  0  0  0  0  0  0  0  0
    0.9170   12.7220   -0.9090 C   0  0  0  0  0  0  0  0  0  0  0  0
    1.1330   11.4390   -1.7220 C   0  0  1  0  0  0  0  0  0  0  0  0
    2.5230   11.4890   -2.4100 C   0  0  0  0  0  0  0  0  0  0  0  0
    2.7160   12.7500   -3.2470 C   0  0  0  0  0  0  0  0  0  0  0  0
    2.5500   14.0030   -2.3920 C   0  0  2  0  0  0  0  0  0  0  0  0
    3.6230   14.0620   -1.4470 O   0  0  0  0  0  0  0  0  0  0  0  0
    1.1900   14.0580   -1.6420 C   0  0  0  0  0  0  0  0  0  0  0  0
    0.0450   14.2990   -2.6570 C   0  0  0  0  0  0  0  0  0  0  0  0
    1.2090   15.2980   -0.7070 C   0  0  0  0  0  0  0  0  0  0  0  0
    0.8870   10.0750   -0.9440 C   0  0  1  0  0  0  0  0  0  0  0  0
    2.1900    9.6410   -0.2060 C   0  0  0  0  0  0  0  0  0  0  0  0
    0.5670    8.9390   -1.9860 C   0  0  0  0  0  0  0  0  0  0  0  0
   -0.9090    8.7660   -2.3950 C   0  0  0  0  0  0  0  0  0  0  0  0
   -1.8150    8.7040   -1.1620 C   0  0  2  0  0  0  0  0  0  0  0  0
   -1.4120    7.4350   -0.3350 C   0  0  0  0  0  0  0  0  0  0  0  0
   -3.5896    6.1953   -3.6963 H   0  0  0  0  0  0  0  0  0  0  0  0
   -4.8948    7.4252   -3.7991 H   0  0  0  0  0  0  0  0  0  0  0  0
   -3.1738    7.9398   -3.7991 H   0  0  0  0  0  0  0  0  0  0  0  0
   -3.3082    6.4841   -1.4760 H   0  0  0  0  0  0  0  0  0  0  0  0
   -5.3946    6.1733   -0.7733 H   0  0  0  0  0  0  0  0  0  0  0  0
   -5.5336    7.9916   -0.6409 H   0  0  0  0  0  0  0  0  0  0  0  0
   -6.1253    7.8116   -3.1973 H   0  0  0  0  0  0  0  0  0  0  0  0
   -6.5858    6.1207   -2.7327 H   0  0  0  0  0  0  0  0  0  0  0  0
   -7.4522    8.6902   -2.0062 H   0  0  0  0  0  0  0  0  0  0  0  0
   -9.1855    4.7834   -2.0600 H   0  0  0  0  0  0  0  0  0  0  0  0
  -10.0358    5.6221   -3.4018 H   0  0  0  0  0  0  0  0  0  0  0  0
   -8.2426    5.5163   -3.4018 H   0  0  0  0  0  0  0  0  0  0  0  0
  -10.5697    7.8275   -0.8158 H   0  0  0  0  0  0  0  0  0  0  0  0
  -10.2199    8.6658   -2.3655 H   0  0  0  0  0  0  0  0  0  0  0  0
  -11.1521    7.1303   -2.3655 H   0  0  0  0  0  0  0  0  0  0  0  0
   -3.5970    9.2580   -2.2983 H   0  0  0  0  0  0  0  0  0  0  0  0
   -4.7776    9.8251   -0.2676 H   0  0  0  0  0  0  0  0  0  0  0  0
   -4.3308    8.2927    0.5121 H   0  0  0  0  0  0  0  0  0  0  0  0
   -3.1531   10.8395    1.0569 H   0  0  0  0  0  0  0  0  0  0  0  0
   -2.4514    9.3010    1.5511 H   0  0  0  0  0  0  0  0  0  0  0  0
   -2.4142   12.1269   -0.5022 H   0  0  0  0  0  0  0  0  0  0  0  0
   -1.2990   11.6571   -1.8297 H   0  0  0  0  0  0  0  0  0  0  0  0
   -2.9950   11.0653   -1.8297 H   0  0  0  0  0  0  0  0  0  0  0  0
   -0.1419    9.3323    0.8207 H   0  0  0  0  0  0  0  0  0  0  0  0
   -0.9351   11.6612    1.5860 H   0  0  0  0  0  0  0  0  0  0  0  0
    0.8299   11.1592    1.7358 H   0  0  0  0  0  0  0  0  0  0  0  0
    0.3831   13.6188    0.9039 H   0  0  0  0  0  0  0  0  0  0  0  0
    0.3394   11.4253   -2.4836 H   0  0  0  0  0  0  0  0  0  0  0  0
    3.3020   11.4581   -1.6339 H   0  0  0  0  0  0  0  0  0  0  0  0
    2.5919   10.6248   -3.0871 H   0  0  0  0  0  0  0  0  0  0  0  0
    3.7263   12.7422   -3.6819 H   0  0  0  0  0  0  0  0  0  0  0  0
    1.9553   12.7638   -4.0414 H   0  0  0  0  0  0  0  0  0  0  0  0
    2.5692   14.8691   -3.0699 H   0  0  0  0  0  0  0  0  0  0  0  0
    3.2590   14.3900   -0.6070 H   0  0  0  0  0  0  0  0  0  0  0  0
   -0.8910   14.4960   -2.1139 H   0  0  0  0  0  0  0  0  0  0  0  0
    0.2915   15.1650   -3.2890 H   0  0  0  0  0  0  0  0  0  0  0  0
   -0.0785   13.4072   -3.2890 H   0  0  0  0  0  0  0  0  0  0  0  0
    1.2039   14.9665    0.3418 H   0  0  0  0  0  0  0  0  0  0  0  0
    2.1163   15.8891   -0.9003 H   0  0  0  0  0  0  0  0  0  0  0  0
    0.3202   15.9166   -0.9003 H   0  0  0  0  0  0  0  0  0  0  0  0
    2.0307    9.6941    0.8811 H   0  0  0  0  0  0  0  0  0  0  0  0
    2.4455    8.6092   -0.4892 H   0  0  0  0  0  0  0  0  0  0  0  0
    3.0131   10.3135   -0.4892 H   0  0  0  0  0  0  0  0  0  0  0  0
    1.1422    9.1532   -2.8988 H   0  0  0  0  0  0  0  0  0  0  0  0
    0.8371    8.0003   -1.4801 H   0  0  0  0  0  0  0  0  0  0  0  0
   -1.2113    9.6183   -3.0213 H   0  0  0  0  0  0  0  0  0  0  0  0
   -1.0105    7.8235   -2.9530 H   0  0  0  0  0  0  0  0  0  0  0  0
   -1.4833    7.6597    0.7394 H   0  0  0  0  0  0  0  0  0  0  0  0
   -2.0909    6.6055   -0.5820 H   0  0  0  0  0  0  0  0  0  0  0  0
   -0.3789    7.1492   -0.5820 H   0  0  0  0  0  0  0  0  0  0  0  0
  1  2  1  0
  2  3  1  0
  3  4  1  0
  4  5  1  0
  5  6  1  0
  6  7  1  0
  7  8  1  0
  7  9  1  0
  2 10  1  0
 10 11  1  0
 11 12  1  0
 12 13  1  0
 13 14  1  6
 13 15  1  0
 15 16  1  0
 16 17  1  0
 17 18  2  0
 18 19  1  0
 19 20  1  0
 20 21  1  0
 21 22  1  0
 22 23  1  0
 22 24  1  0
 24 25  1  0
 24 26  1  0
 19 27  1  0
 27 28  1  1
 27 29  1  0
 29 30  1  0
 30 31  1  0
 31 32  1  1
  7  5  1  0
 31 10  1  0
 31 13  1  0
 27 15  1  0
 24 18  1  0
  1 33  1  0
  1 34  1  0
  1 35  1  0
  2 36  1  1
  3 37  1  0
  3 38  1  0
  4 39  1  0
  4 40  1  0
  5 41  1  1
  8 42  1  0
  8 43  1  0
  8 44  1  0
  9 45  1  0
  9 46  1  0
  9 47  1  0
 10 48  1  6
 11 49  1  0
 11 50  1  0
 12 51  1  0
 12 52  1  0
 14 53  1  0
 14 54  1  0
 14 55  1  0
 15 56  1  1
 16 57  1  0
 16 58  1  0
 17 59  1  0
 19 60  1  6
 20 61  1  0
 20 62  1  0
 21 63  1  0
 21 64  1  0
 22 65  1  6
 23 66  1  0
 25 67  1  0
 25 68  1  0
 25 69  1  0
 26 70  1  0
 26 71  1  0
 26 72  1  0
 28 73  1  0
 28 74  1  0
 28 75  1  0
 29 76  1  0
 29 77  1  0
 30 78  1  0
 30 79  1  0
 32 80  1  0
 32 81  1  0
 32 82  1  0
M  END
>  <meeko>  (9) 
{"is_sidechain": [false], "intermolecular_energy": 2.731, "internal_energy": -0.839}

$$$$
EPH_relaxed_0001_pdb2pqr_Repair_27_r2_0001_out
     RDKit          3D

 82 86  0  0  0  0  0  0  0  0999 V2000
   -0.8800   16.3600   -5.8550 C   0  0  0  0  0  0  0  0  0  0  0  0
    0.2160   15.6630   -6.6670 C   0  0  2  0  0  0  0  0  0  0  0  0
   -0.1830   15.4820   -8.1450 C   0  0  0  0  0  0  0  0  0  0  0  0
    0.4660   16.5000   -9.0870 C   0  0  0  0  0  0  0  0  0  0  0  0
    1.8670   16.1080   -9.4470 C   0  0  2  0  0  0  0  0  0  0  0  0
    2.3480   16.6680  -10.6750 O   0  0  0  0  0  0  0  0  0  0  0  0
    2.2120   15.2390  -10.6410 C   0  0  0  0  0  0  0  0  0  0  0  0
    1.1500   14.7070  -11.5520 C   0  0  0  0  0  0  0  0  0  0  0  0
    3.5190   14.5080  -10.6410 C   0  0  0  0  0  0  0  0  0  0  0  0
    0.5410   14.3100   -6.0450 C   0  0  1  0  0  0  0  0  0  0  0  0
    1.8050   13.6560   -6.6650 C   0  0  0  0  0  0  0  0  0  0  0  0
    2.5190   12.8910   -5.5210 C   0  0  0  0  0  0  0  0  0  0  0  0
    1.4840   12.8500   -4.3730 C   0  0  1  0  0  0  0  0  0  0  0  0
    0.5290   11.6700   -4.7360 C   0  0  0  0  0  0  0  0  0  0  0  0
    2.0610   12.7030   -2.9270 C   0  0  2  0  0  0  0  0  0  0  0  0
    2.8350   11.3990   -2.6630 C   0  0  0  0  0  0  0  0  0  0  0  0
    2.0140   10.2630   -2.1490 C   0  0  0  0  0  0  0  0  0  0  0  0
    0.7720   10.3630   -1.6400 C   0  0  0  0  0  0  0  0  0  0  0  0
    0.1050   11.7320   -1.4530 C   0  0  1  0  0  0  0  0  0  0  0  0
   -0.5360   11.8070   -0.0420 C   0  0  0  0  0  0  0  0  0  0  0  0
   -1.4930   10.6500    0.2270 C   0  0  0  0  0  0  0  0  0  0  0  0
   -0.7800    9.3080    0.0880 C   0  0  2  0  0  0  0  0  0  0  0  0
    0.1900    9.1910    1.1340 O   0  0  0  0  0  0  0  0  0  0  0  0
   -0.0860    9.1220   -1.2910 C   0  0  0  0  0  0  0  0  0  0  0  0
   -1.1600    8.9470   -2.3940 C   0  0  0  0  0  0  0  0  0  0  0  0
    0.7130    7.7920   -1.2480 C   0  0  0  0  0  0  0  0  0  0  0  0
    1.0130   12.9950   -1.7780 C   0  0  1  0  0  0  0  0  0  0  0  0
    1.8360   13.3980   -0.5170 C   0  0  0  0  0  0  0  0  0  0  0  0
    0.0840   14.2220   -2.1130 C   0  0  0  0  0  0  0  0  0  0  0  0
   -0.3540   14.3810   -3.5820 C   0  0  0  0  0  0  0  0  0  0  0  0
    0.8470   14.2790   -4.5270 C   0  0  2  0  0  0  0  0  0  0  0  0
    1.8140   15.4670   -4.2010 C   0  0  0  0  0  0  0  0  0  0  0  0
   -0.6784   16.2318   -4.7812 H   0  0  0  0  0  0  0  0  0  0  0  0
   -0.8923   17.4322   -6.1003 H   0  0  0  0  0  0  0  0  0  0  0  0
   -1.8563   15.9165   -6.1003 H   0  0  0  0  0  0  0  0  0  0  0  0
    1.1073   16.3072   -6.6429 H   0  0  0  0  0  0  0  0  0  0  0  0
    0.1166   14.4730   -8.4645 H   0  0  0  0  0  0  0  0  0  0  0  0
   -1.2705   15.6358   -8.2055 H   0  0  0  0  0  0  0  0  0  0  0  0
   -0.1331   16.5666  -10.0071 H   0  0  0  0  0  0  0  0  0  0  0  0
    0.5037   17.4701   -8.5698 H   0  0  0  0  0  0  0  0  0  0  0  0
    2.1480   16.0480   -8.3852 H   0  0  0  0  0  0  0  0  0  0  0  0
    0.3256   14.2940  -10.9522 H   0  0  0  0  0  0  0  0  0  0  0  0
    0.7698   15.5211  -12.1866 H   0  0  0  0  0  0  0  0  0  0  0  0
    1.5743   13.9150  -12.1866 H   0  0  0  0  0  0  0  0  0  0  0  0
    3.8390   14.3290   -9.6039 H   0  0  0  0  0  0  0  0  0  0  0  0
    3.4006   13.5451  -11.1595 H   0  0  0  0  0  0  0  0  0  0  0  0
    4.2774   15.1129  -11.1595 H   0  0  0  0  0  0  0  0  0  0  0  0
   -0.4025   13.7826   -6.2489 H   0  0  0  0  0  0  0  0  0  0  0  0
    1.5169   12.9584   -7.4652 H   0  0  0  0  0  0  0  0  0  0  0  0
    2.4672   14.4157   -7.1058 H   0  0  0  0  0  0  0  0  0  0  0  0
    2.7840   11.8726   -5.8413 H   0  0  0  0  0  0  0  0  0  0  0  0
    3.4586   13.3761   -5.2181 H   0  0  0  0  0  0  0  0  0  0  0  0
    0.1529   11.2053   -3.8126 H   0  0  0  0  0  0  0  0  0  0  0  0
   -0.3176   12.0516   -5.3256 H   0  0  0  0  0  0  0  0  0  0  0  0
    1.0787   10.9215   -5.3256 H   0  0  0  0  0  0  0  0  0  0  0  0
    2.8094   13.5083   -2.8887 H   0  0  0  0  0  0  0  0  0  0  0  0
    3.2996   11.0822   -3.6084 H   0  0  0  0  0  0  0  0  0  0  0  0
    3.5621   11.6317   -1.8711 H   0  0  0  0  0  0  0  0  0  0  0  0
    2.4621    9.2592   -2.1897 H   0  0  0  0  0  0  0  0  0  0  0  0
   -0.6780   11.7969   -2.2228 H   0  0  0  0  0  0  0  0  0  0  0  0
    0.2654   11.7844    0.7112 H   0  0  0  0  0  0  0  0  0  0  0  0
   -1.1160   12.7401    0.0125 H   0  0  0  0  0  0  0  0  0  0  0  0
   -1.8908   10.7421    1.2484 H   0  0  0  0  0  0  0  0  0  0  0  0
   -2.3092   10.6915   -0.5092 H   0  0  0  0  0  0  0  0  0  0  0  0
   -1.5435    8.5197    0.1635 H   0  0  0  0  0  0  0  0  0  0  0  0
    1.0710    9.2640    0.7280 H   0  0  0  0  0  0  0  0  0  0  0  0
   -2.1428    8.7869   -1.9267 H   0  0  0  0  0  0  0  0  0  0  0  0
   -1.1943    9.8514   -3.0192 H   0  0  0  0  0  0  0  0  0  0  0  0
   -0.9054    8.0785   -3.0192 H   0  0  0  0  0  0  0  0  0  0  0  0
    0.8870    7.5024   -0.2011 H   0  0  0  0  0  0  0  0  0  0  0  0
    0.1393    7.0030   -1.7562 H   0  0  0  0  0  0  0  0  0  0  0  0
    1.6790    7.9280   -1.7562 H   0  0  0  0  0  0  0  0  0  0  0  0
    1.2761   13.1238    0.3893 H   0  0  0  0  0  0  0  0  0  0  0  0
    2.8013   12.8706   -0.5252 H   0  0  0  0  0  0  0  0  0  0  0  0
    2.0113   14.4839   -0.5252 H   0  0  0  0  0  0  0  0  0  0  0  0
   -0.8262   14.1267   -1.5028 H   0  0  0  0  0  0  0  0  0  0  0  0
    0.6931   15.1120   -1.8962 H   0  0  0  0  0  0  0  0  0  0  0  0
   -1.0753   13.5884   -3.8301 H   0  0  0  0  0  0  0  0  0  0  0  0
   -0.8137   15.3727   -3.7052 H   0  0  0  0  0  0  0  0  0  0  0  0
    1.9041   15.5777   -3.1103 H   0  0  0  0  0  0  0  0  0  0  0  0
    2.8051   15.2619   -4.6319 H   0  0  0  0  0  0  0  0  0  0  0  0
    1.4120   16.3958   -4.6319 H   0  0  0  0  0  0  0  0  0  0  0  0
  1  2  1  0
  2  3  1  0
  3  4  1  0
  4  5  1  0
  5  6  1  0
  6  7  1  0
  7  8  1  0
  7  9  1  0
  2 10  1  0
 10 11  1  0
 11 12  1  0
 12 13  1  0
 13 14  1  6
 13 15  1  0
 15 16  1  0
 16 17  1  0
 17 18  2  0
 18 19  1  0
 19 20  1  0
 20 21  1  0
 21 22  1  0
 22 23  1  0
 22 24  1  0
 24 25  1  0
 24 26  1  0
 19 27  1  0
 27 28  1  1
 27 29  1  0
 29 30  1  0
 30 31  1  0
 31 32  1  1
  7  5  1  0
 31 10  1  0
 31 13  1  0
 27 15  1  0
 24 18  1  0
  1 33  1  0
  1 34  1  0
  1 35  1  0
  2 36  1  6
  3 37  1  0
  3 38  1  0
  4 39  1  0
  4 40  1  0
  5 41  1  1
  8 42  1  0
  8 43  1  0
  8 44  1  0
  9 45  1  0
  9 46  1  0
  9 47  1  0
 10 48  1  1
 11 49  1  0
 11 50  1  0
 12 51  1  0
 12 52  1  0
 14 53  1  0
 14 54  1  0
 14 55  1  0
 15 56  1  6
 16 57  1  0
 16 58  1  0
 17 59  1  0
 19 60  1  6
 20 61  1  0
 20 62  1  0
 21 63  1  0
 21 64  1  0
 22 65  1  1
 23 66  1  0
 25 67  1  0
 25 68  1  0
 25 69  1  0
 26 70  1  0
 26 71  1  0
 26 72  1  0
 28 73  1  0
 28 74  1  0
 28 75  1  0
 29 76  1  0
 29 77  1  0
 30 78  1  0
 30 79  1  0
 32 80  1  0
 32 81  1  0
 32 82  1  0
M  END
>  <meeko>  (10) 
{"is_sidechain": [false], "intermolecular_energy": 2.731, "internal_energy": -0.839}

$$$$
EPH_relaxed_0001_pdb2pqr_Repair_27_r2_0001_out
     RDKit          3D

 82 86  0  0  0  0  0  0  0  0999 V2000
    3.1800   18.4980   -1.0090 C   0  0  0  0  0  0  0  0  0  0  0  0
    2.8330   17.4530   -2.0730 C   0  0  2  0  0  0  0  0  0  0  0  0
    1.4750   17.7380   -2.7460 C   0  0  0  0  0  0  0  0  0  0  0  0
    0.8730   19.0930   -2.3660 C   0  0  0  0  0  0  0  0  0  0  0  0
   -0.5020   18.9460   -1.7880 C   0  0  2  0  0  0  0  0  0  0  0  0
   -1.2120   20.1790   -1.6110 O   0  0  0  0  0  0  0  0  0  0  0  0
   -0.8900   19.4550   -0.4120 C   0  0  0  0  0  0  0  0  0  0  0  0
    0.0990   20.1490    0.4710 C   0  0  0  0  0  0  0  0  0  0  0  0
   -2.0810   18.8500    0.2650 C   0  0  0  0  0  0  0  0  0  0  0  0
    2.8230   16.0610   -1.4500 C   0  0  1  0  0  0  0  0  0  0  0  0
    3.3380   16.0580    0.0140 C   0  0  0  0  0  0  0  0  0  0  0  0
    2.5210   14.9820    0.7730 C   0  0  0  0  0  0  0  0  0  0  0  0
    1.8060   14.1790   -0.3390 C   0  0  1  0  0  0  0  0  0  0  0  0
    2.8800   13.1750   -0.8620 C   0  0  0  0  0  0  0  0  0  0  0  0
    0.4870   13.4490    0.0760 C   0  0  2  0  0  0  0  0  0  0  0  0
    0.6530   12.3640    1.1540 C   0  0  0  0  0  0  0  0  0  0  0  0
    0.9200   10.9880    0.6380 C   0  0  0  0  0  0  0  0  0  0  0  0
    0.7430   10.5810   -0.6330 C   0  0  0  0  0  0  0  0  0  0  0  0
    0.1330   11.5190   -1.6820 C   0  0  1  0  0  0  0  0  0  0  0  0
   -0.9560   10.7600   -2.4850 C   0  0  0  0  0  0  0  0  0  0  0  0
   -0.4350    9.4620   -3.0940 C   0  0  0  0  0  0  0  0  0  0  0  0
    0.1090    8.5320   -2.0130 C   0  0  2  0  0  0  0  0  0  0  0  0
   -0.9760    8.1010   -1.1860 O   0  0  0  0  0  0  0  0  0  0  0  0
    1.2080    9.1920   -1.1340 C   0  0  0  0  0  0  0  0  0  0  0  0
    2.4980    9.3820   -1.9690 C   0  0  0  0  0  0  0  0  0  0  0  0
    1.5690    8.1980    0.0030 C   0  0  0  0  0  0  0  0  0  0  0  0
   -0.3750   12.9250   -1.1440 C   0  0  1  0  0  0  0  0  0  0  0  0
   -1.8420   12.8010   -0.6310 C   0  0  0  0  0  0  0  0  0  0  0  0
   -0.4070   13.9520   -2.3380 C   0  0  0  0  0  0  0  0  0  0  0  0
    0.8920   14.7290   -2.6210 C   0  0  0  0  0  0  0  0  0  0  0  0
    1.4560   15.3420   -1.3360 C   0  0  2  0  0  0  0  0  0  0  0  0
    0.4060   16.3740   -0.7980 C   0  0  0  0  0  0  0  0  0  0  0  0
    3.0360   18.0643   -0.0084 H   0  0  0  0  0  0  0  0  0  0  0  0
    4.2290   18.8072   -1.1271 H   0  0  0  0  0  0  0  0  0  0  0  0
    2.5243   19.3733   -1.1271 H   0  0  0  0  0  0  0  0  0  0  0  0
    3.6061   17.5062   -2.8537 H   0  0  0  0  0  0  0  0  0  0  0  0
    1.6160   17.7141   -3.8367 H   0  0  0  0  0  0  0  0  0  0  0  0
    0.7743   16.9653   -2.3967 H   0  0  0  0  0  0  0  0  0  0  0  0
    1.5230   19.5757   -1.6214 H   0  0  0  0  0  0  0  0  0  0  0  0
    0.7981   19.7030   -3.2783 H   0  0  0  0  0  0  0  0  0  0  0  0
   -0.6279   17.9679   -2.2754 H   0  0  0  0  0  0  0  0  0  0  0  0
   -0.1596   19.9675    1.5247 H   0  0  0  0  0  0  0  0  0  0  0  0
    1.1077   19.7596    0.2687 H   0  0  0  0  0  0  0  0  0  0  0  0
    0.0759   21.2300    0.2687 H   0  0  0  0  0  0  0  0  0  0  0  0
   -1.9546   18.9142    1.3558 H   0  0  0  0  0  0  0  0  0  0  0  0
   -2.9884   19.3965   -0.0318 H   0  0  0  0  0  0  0  0  0  0  0  0
   -2.1748   17.7950   -0.0318 H   0  0  0  0  0  0  0  0  0  0  0  0
    3.4664   15.5331   -2.1693 H   0  0  0  0  0  0  0  0  0  0  0  0
    4.4089   15.8076    0.0384 H   0  0  0  0  0  0  0  0  0  0  0  0
    3.2149   17.0477    0.4781 H   0  0  0  0  0  0  0  0  0  0  0  0
    3.1865   14.3291    1.3568 H   0  0  0  0  0  0  0  0  0  0  0  0
    1.8130   15.4240    1.4895 H   0  0  0  0  0  0  0  0  0  0  0  0
    3.3863   12.7017   -0.0078 H   0  0  0  0  0  0  0  0  0  0  0  0
    2.3921   12.4017   -1.4734 H   0  0  0  0  0  0  0  0  0  0  0  0
    3.6187   13.7139   -1.4734 H   0  0  0  0  0  0  0  0  0  0  0  0
   -0.0898   14.2561    0.5514 H   0  0  0  0  0  0  0  0  0  0  0  0
    1.4941   12.6536    1.8011 H   0  0  0  0  0  0  0  0  0  0  0  0
   -0.3104   12.3095    1.6820 H   0  0  0  0  0  0  0  0  0  0  0  0
    1.2929   10.2441    1.3575 H   0  0  0  0  0  0  0  0  0  0  0  0
    0.9587   11.8047   -2.3503 H   0  0  0  0  0  0  0  0  0  0  0  0
   -1.7910   10.5224   -1.8095 H   0  0  0  0  0  0  0  0  0  0  0  0
   -1.2768   11.4115   -3.3112 H   0  0  0  0  0  0  0  0  0  0  0  0
   -1.2568    8.9572   -3.6229 H   0  0  0  0  0  0  0  0  0  0  0  0
    0.3803    9.7040   -3.7917 H   0  0  0  0  0  0  0  0  0  0  0  0
    0.5838    7.6789   -2.5198 H   0  0  0  0  0  0  0  0  0  0  0  0
   -1.7970    8.2160   -1.6940 H   0  0  0  0  0  0  0  0  0  0  0  0
    3.3568    9.5085   -1.2934 H   0  0  0  0  0  0  0  0  0  0  0  0
    2.6577    8.4977   -2.6034 H   0  0  0  0  0  0  0  0  0  0  0  0
    2.3960   10.2748   -2.6034 H   0  0  0  0  0  0  0  0  0  0  0  0
    1.3950    8.6771    0.9778 H   0  0  0  0  0  0  0  0  0  0  0  0
    0.9397    7.2998   -0.0817 H   0  0  0  0  0  0  0  0  0  0  0  0
    2.6281    7.9130   -0.0817 H   0  0  0  0  0  0  0  0  0  0  0  0
   -1.8470   12.8006    0.4690 H   0  0  0  0  0  0  0  0  0  0  0  0
   -2.4327   13.6524   -1.0000 H   0  0  0  0  0  0  0  0  0  0  0  0
   -2.2814   11.8625   -1.0000 H   0  0  0  0  0  0  0  0  0  0  0  0
   -0.6663   13.3941   -3.2499 H   0  0  0  0  0  0  0  0  0  0  0  0
   -1.1403   14.7161   -2.0406 H   0  0  0  0  0  0  0  0  0  0  0  0
    1.6366   14.0413   -3.0484 H   0  0  0  0  0  0  0  0  0  0  0  0
    0.6674   15.5416   -3.3276 H   0  0  0  0  0  0  0  0  0  0  0  0
    0.4143   16.3659    0.3019 H   0  0  0  0  0  0  0  0  0  0  0  0
    0.6630   17.3807   -1.1592 H   0  0  0  0  0  0  0  0  0  0  0  0
   -0.5961   16.0996   -1.1592 H   0  0  0  0  0  0  0  0  0  0  0  0
  1  2  1  0
  2  3  1  0
  3  4  1  0
  4  5  1  0
  5  6  1  0
  6  7  1  0
  7  8  1  0
  7  9  1  0
  2 10  1  0
 10 11  1  0
 11 12  1  0
 12 13  1  0
 13 14  1  6
 13 15  1  0
 15 16  1  0
 16 17  1  0
 17 18  2  0
 18 19  1  0
 19 20  1  0
 20 21  1  0
 21 22  1  0
 22 23  1  0
 22 24  1  0
 24 25  1  0
 24 26  1  0
 19 27  1  0
 27 28  1  1
 27 29  1  0
 29 30  1  0
 30 31  1  0
 31 32  1  1
  7  5  1  0
 31 10  1  0
 31 13  1  0
 27 15  1  0
 24 18  1  0
  1 33  1  0
  1 34  1  0
  1 35  1  0
  2 36  1  6
  3 37  1  0
  3 38  1  0
  4 39  1  0
  4 40  1  0
  5 41  1  6
  8 42  1  0
  8 43  1  0
  8 44  1  0
  9 45  1  0
  9 46  1  0
  9 47  1  0
 10 48  1  6
 11 49  1  0
 11 50  1  0
 12 51  1  0
 12 52  1  0
 14 53  1  0
 14 54  1  0
 14 55  1  0
 15 56  1  1
 16 57  1  0
 16 58  1  0
 17 59  1  0
 19 60  1  6
 20 61  1  0
 20 62  1  0
 21 63  1  0
 21 64  1  0
 22 65  1  6
 23 66  1  0
 25 67  1  0
 25 68  1  0
 25 69  1  0
 26 70  1  0
 26 71  1  0
 26 72  1  0
 28 73  1  0
 28 74  1  0
 28 75  1  0
 29 76  1  0
 29 77  1  0
 30 78  1  0
 30 79  1  0
 32 80  1  0
 32 81  1  0
 32 82  1  0
M  END
>  <meeko>  (11) 
{"is_sidechain": [false], "intermolecular_energy": 2.731, "internal_energy": -0.839}

$$$$
EPH_relaxed_0001_pdb2pqr_Repair_27_r2_0001_out
     RDKit          3D

 82 86  0  0  0  0  0  0  0  0999 V2000
    0.2190    9.3350   -2.3370 C   0  0  0  0  0  0  0  0  0  0  0  0
    1.2680   10.3590   -2.7800 C   0  0  2  0  0  0  0  0  0  0  0  0
    2.6830    9.7500   -2.8440 C   0  0  0  0  0  0  0  0  0  0  0  0
    3.6130   10.4570   -3.8340 C   0  0  0  0  0  0  0  0  0  0  0  0
    5.0030   10.5920   -3.2880 C   0  0  2  0  0  0  0  0  0  0  0  0
    5.6090   11.8740   -3.5040 O   0  0  0  0  0  0  0  0  0  0  0  0
    6.2320   10.7590   -4.1620 C   0  0  0  0  0  0  0  0  0  0  0  0
    6.1290   10.7980   -5.6550 C   0  0  0  0  0  0  0  0  0  0  0  0
    7.5680   10.3940   -3.5940 C   0  0  0  0  0  0  0  0  0  0  0  0
    1.2580   11.5550   -1.8360 C   0  0  1  0  0  0  0  0  0  0  0  0
    2.3150   11.4340   -0.7070 C   0  0  0  0  0  0  0  0  0  0  0  0
    2.8330   12.8670   -0.4230 C   0  0  0  0  0  0  0  0  0  0  0  0
    1.8330   13.7950   -1.1510 C   0  0  1  0  0  0  0  0  0  0  0  0
    0.6140   13.9080   -0.1840 C   0  0  0  0  0  0  0  0  0  0  0  0
    2.3730   15.2020   -1.5670 C   0  0  2  0  0  0  0  0  0  0  0  0
    2.8060   16.1060   -0.4000 C   0  0  0  0  0  0  0  0  0  0  0  0
    1.7380   16.9900    0.1530 C   0  0  0  0  0  0  0  0  0  0  0  0
    0.5640   17.2660   -0.4460 C   0  0  0  0  0  0  0  0  0  0  0  0
    0.2560   16.7440   -1.8550 C   0  0  1  0  0  0  0  0  0  0  0  0
   -0.3310   17.8930   -2.7160 C   0  0  0  0  0  0  0  0  0  0  0  0
   -1.5400   18.5550   -2.0620 C   0  0  0  0  0  0  0  0  0  0  0  0
   -1.1790   19.1130   -0.6880 C   0  0  2  0  0  0  0  0  0  0  0  0
   -0.2560   20.1930   -0.8570 O   0  0  0  0  0  0  0  0  0  0  0  0
   -0.5680   18.0480    0.2650 C   0  0  0  0  0  0  0  0  0  0  0  0
   -1.6640   17.0390    0.6880 C   0  0  0  0  0  0  0  0  0  0  0  0
   -0.1190   18.7710    1.5640 C   0  0  0  0  0  0  0  0  0  0  0  0
    1.4420   15.9780   -2.5850 C   0  0  1  0  0  0  0  0  0  0  0  0
    2.3540   16.9990   -3.3320 C   0  0  0  0  0  0  0  0  0  0  0  0
    0.8400   15.0300   -3.6880 C   0  0  0  0  0  0  0  0  0  0  0  0
    0.4360   13.6120   -3.2400 C   0  0  0  0  0  0  0  0  0  0  0  0
    1.5650   12.9460   -2.4470 C   0  0  2  0  0  0  0  0  0  0  0  0
    2.7980   12.7980   -3.4010 C   0  0  0  0  0  0  0  0  0  0  0  0
    0.1825    9.2994   -1.2382 H   0  0  0  0  0  0  0  0  0  0  0  0
   -0.7669    9.6277   -2.7273 H   0  0  0  0  0  0  0  0  0  0  0  0
    0.4879    8.3423   -2.7273 H   0  0  0  0  0  0  0  0  0  0  0  0
    1.0029   10.6856   -3.7964 H   0  0  0  0  0  0  0  0  0  0  0  0
    3.1325    9.8098   -1.8418 H   0  0  0  0  0  0  0  0  0  0  0  0
    2.5712    8.7127   -3.1925 H   0  0  0  0  0  0  0  0  0  0  0  0
    3.6510    9.8743   -4.7662 H   0  0  0  0  0  0  0  0  0  0  0  0
    3.2163   11.4666   -4.0168 H   0  0  0  0  0  0  0  0  0  0  0  0
    4.7721    9.9013   -2.4636 H   0  0  0  0  0  0  0  0  0  0  0  0
    5.1365   11.1738   -5.9444 H   0  0  0  0  0  0  0  0  0  0  0  0
    6.9054   11.4644   -6.0588 H   0  0  0  0  0  0  0  0  0  0  0  0
    6.2694    9.7845   -6.0588 H   0  0  0  0  0  0  0  0  0  0  0  0
    7.5156   10.4083   -2.4953 H   0  0  0  0  0  0  0  0  0  0  0  0
    7.8484    9.3863   -3.9346 H   0  0  0  0  0  0  0  0  0  0  0  0
    8.3218   11.1191   -3.9346 H   0  0  0  0  0  0  0  0  0  0  0  0
    0.2119   11.5143   -1.4984 H   0  0  0  0  0  0  0  0  0  0  0  0
    1.8552   11.0112    0.1984 H   0  0  0  0  0  0  0  0  0  0  0  0
    3.1383   10.7689   -1.0068 H   0  0  0  0  0  0  0  0  0  0  0  0
    2.8364   13.0715    0.6578 H   0  0  0  0  0  0  0  0  0  0  0  0
    3.8664   13.0133   -0.7702 H   0  0  0  0  0  0  0  0  0  0  0  0
    0.9676   13.8752    0.8571 H   0  0  0  0  0  0  0  0  0  0  0  0
    0.0904   14.8585   -0.3636 H   0  0  0  0  0  0  0  0  0  0  0  0
   -0.0755   13.0699   -0.3636 H   0  0  0  0  0  0  0  0  0  0  0  0
    3.2972   14.9498   -2.1077 H   0  0  0  0  0  0  0  0  0  0  0  0
    3.1677   15.4603    0.4138 H   0  0  0  0  0  0  0  0  0  0  0  0
    3.5768   16.7778   -0.8057 H   0  0  0  0  0  0  0  0  0  0  0  0
    1.9257   17.4550    1.1320 H   0  0  0  0  0  0  0  0  0  0  0  0
   -0.4962   15.9514   -1.7283 H   0  0  0  0  0  0  0  0  0  0  0  0
    0.4488   18.6540   -2.8674 H   0  0  0  0  0  0  0  0  0  0  0  0
   -0.6636   17.4588   -3.6704 H   0  0  0  0  0  0  0  0  0  0  0  0
   -1.8914   19.3767   -2.7034 H   0  0  0  0  0  0  0  0  0  0  0  0
   -2.3298   17.7995   -1.9379 H   0  0  0  0  0  0  0  0  0  0  0  0
   -2.1114   19.4572   -0.2167 H   0  0  0  0  0  0  0  0  0  0  0  0
   -0.7520   21.0230   -0.7590 H   0  0  0  0  0  0  0  0  0  0  0  0
   -1.7151   16.9920    1.7858 H   0  0  0  0  0  0  0  0  0  0  0  0
   -2.6360   17.3649    0.2893 H   0  0  0  0  0  0  0  0  0  0  0  0
   -1.4194   16.0434    0.2893 H   0  0  0  0  0  0  0  0  0  0  0  0
   -0.4706   18.2048    2.4391 H   0  0  0  0  0  0  0  0  0  0  0  0
    0.9788   18.8363    1.5865 H   0  0  0  0  0  0  0  0  0  0  0  0
   -0.5471   19.7840    1.5865 H   0  0  0  0  0  0  0  0  0  0  0  0
    2.8993   17.6095   -2.5972 H   0  0  0  0  0  0  0  0  0  0  0  0
    3.0728   16.4555   -3.9628 H   0  0  0  0  0  0  0  0  0  0  0  0
    1.7331   17.6521   -3.9628 H   0  0  0  0  0  0  0  0  0  0  0  0
   -0.0578   15.5194   -4.0935 H   0  0  0  0  0  0  0  0  0  0  0  0
    1.6522   14.8818   -4.4149 H   0  0  0  0  0  0  0  0  0  0  0  0
   -0.4602   13.6766   -2.6054 H   0  0  0  0  0  0  0  0  0  0  0  0
    0.2307   13.0062   -4.1349 H   0  0  0  0  0  0  0  0  0  0  0  0
    3.7140   12.6881   -2.8019 H   0  0  0  0  0  0  0  0  0  0  0  0
    2.6660   11.9093   -4.0356 H   0  0  0  0  0  0  0  0  0  0  0  0
    2.8801   13.6927   -4.0356 H   0  0  0  0  0  0  0  0  0  0  0  0
  1  2  1  0
  2  3  1  0
  3  4  1  0
  4  5  1  0
  5  6  1  0
  6  7  1  0
  7  8  1  0
  7  9  1  0
  2 10  1  0
 10 11  1  0
 11 12  1  0
 12 13  1  0
 13 14  1  1
 13 15  1  0
 15 16  1  0
 16 17  1  0
 17 18  2  0
 18 19  1  0
 19 20  1  0
 20 21  1  0
 21 22  1  0
 22 23  1  0
 22 24  1  0
 24 25  1  0
 24 26  1  0
 19 27  1  0
 27 28  1  6
 27 29  1  0
 29 30  1  0
 30 31  1  0
 31 32  1  6
  7  5  1  0
 31 10  1  0
 31 13  1  0
 27 15  1  0
 24 18  1  0
  1 33  1  0
  1 34  1  0
  1 35  1  0
  2 36  1  6
  3 37  1  0
  3 38  1  0
  4 39  1  0
  4 40  1  0
  5 41  1  1
  8 42  1  0
  8 43  1  0
  8 44  1  0
  9 45  1  0
  9 46  1  0
  9 47  1  0
 10 48  1  1
 11 49  1  0
 11 50  1  0
 12 51  1  0
 12 52  1  0
 14 53  1  0
 14 54  1  0
 14 55  1  0
 15 56  1  6
 16 57  1  0
 16 58  1  0
 17 59  1  0
 19 60  1  1
 20 61  1  0
 20 62  1  0
 21 63  1  0
 21 64  1  0
 22 65  1  1
 23 66  1  0
 25 67  1  0
 25 68  1  0
 25 69  1  0
 26 70  1  0
 26 71  1  0
 26 72  1  0
 28 73  1  0
 28 74  1  0
 28 75  1  0
 29 76  1  0
 29 77  1  0
 30 78  1  0
 30 79  1  0
 32 80  1  0
 32 81  1  0
 32 82  1  0
M  END
>  <meeko>  (12) 
{"is_sidechain": [false], "intermolecular_energy": 2.731, "internal_energy": -0.839}

$$$$
EPH_relaxed_0001_pdb2pqr_Repair_27_r2_0001_out
     RDKit          3D

 82 86  0  0  0  0  0  0  0  0999 V2000
    4.6140   15.7990    0.0670 C   0  0  0  0  0  0  0  0  0  0  0  0
    3.3830   16.3590   -0.6520 C   0  0  2  0  0  0  0  0  0  0  0  0
    3.0160   17.7730   -0.1590 C   0  0  0  0  0  0  0  0  0  0  0  0
    2.8260   18.7880   -1.2890 C   0  0  0  0  0  0  0  0  0  0  0  0
    1.4020   18.8390   -1.7540 C   0  0  2  0  0  0  0  0  0  0  0  0
    0.9260   20.1510   -2.0820 O   0  0  0  0  0  0  0  0  0  0  0  0
    0.2880   19.5060   -0.9670 C   0  0  0  0  0  0  0  0  0  0  0  0
    0.5510   20.1660    0.3500 C   0  0  0  0  0  0  0  0  0  0  0  0
   -1.1250   19.0930   -1.2370 C   0  0  0  0  0  0  0  0  0  0  0  0
    2.1990   15.4180   -0.4640 C   0  0  1  0  0  0  0  0  0  0  0  0
    0.8730   16.1750   -0.1860 C   0  0  0  0  0  0  0  0  0  0  0  0
   -0.2570   15.3600   -0.8650 C   0  0  0  0  0  0  0  0  0  0  0  0
    0.3980   14.0050   -1.2210 C   0  0  1  0  0  0  0  0  0  0  0  0
    0.3650   13.1830    0.1060 C   0  0  0  0  0  0  0  0  0  0  0  0
   -0.2470   13.2140   -2.4050 C   0  0  2  0  0  0  0  0  0  0  0  0
   -1.7060   12.7780   -2.1810 C   0  0  0  0  0  0  0  0  0  0  0  0
   -1.8810   11.4330   -1.5570 C   0  0  0  0  0  0  0  0  0  0  0  0
   -0.9260   10.4900   -1.4520 C   0  0  0  0  0  0  0  0  0  0  0  0
    0.4580   10.6970   -2.0780 C   0  0  1  0  0  0  0  0  0  0  0  0
    0.8740    9.4170   -2.8510 C   0  0  0  0  0  0  0  0  0  0  0  0
    0.8070    8.1630   -1.9850 C   0  0  0  0  0  0  0  0  0  0  0  0
   -0.5990    7.9600   -1.4270 C   0  0  2  0  0  0  0  0  0  0  0  0
   -1.4860    7.6660   -2.5110 O   0  0  0  0  0  0  0  0  0  0  0  0
   -1.1290    9.1890   -0.6360 C   0  0  0  0  0  0  0  0  0  0  0  0
   -0.3520    9.3250    0.6960 C   0  0  0  0  0  0  0  0  0  0  0  0
   -2.6060    8.9080   -0.2510 C   0  0  0  0  0  0  0  0  0  0  0  0
    0.6370   12.0180   -2.9440 C   0  0  1  0  0  0  0  0  0  0  0  0
    0.1840   11.7560   -4.4130 C   0  0  0  0  0  0  0  0  0  0  0  0
    2.1660   12.3860   -3.0100 C   0  0  0  0  0  0  0  0  0  0  0  0
    2.7180   13.2690   -1.8740 C   0  0  0  0  0  0  0  0  0  0  0  0
    1.8280   14.4960   -1.6520 C   0  0  2  0  0  0  0  0  0  0  0  0
    1.8590   15.3530   -2.9630 C   0  0  0  0  0  0  0  0  0  0  0  0
    4.4655   15.8665    1.1548 H   0  0  0  0  0  0  0  0  0  0  0  0
    4.7584   14.7466   -0.2187 H   0  0  0  0  0  0  0  0  0  0  0  0
    5.5022   16.3817   -0.2187 H   0  0  0  0  0  0  0  0  0  0  0  0
    3.6304   16.4363   -1.7210 H   0  0  0  0  0  0  0  0  0  0  0  0
    2.0780   17.7092    0.4120 H   0  0  0  0  0  0  0  0  0  0  0  0
    3.8571   18.1282    0.4545 H   0  0  0  0  0  0  0  0  0  0  0  0
    3.1186   19.7844   -0.9262 H   0  0  0  0  0  0  0  0  0  0  0  0
    3.4532   18.4780   -2.1378 H   0  0  0  0  0  0  0  0  0  0  0  0
    1.4895   17.8407   -2.2075 H   0  0  0  0  0  0  0  0  0  0  0  0
    0.2776   19.4798    1.1651 H   0  0  0  0  0  0  0  0  0  0  0  0
    1.6187   20.4192    0.4265 H   0  0  0  0  0  0  0  0  0  0  0  0
   -0.0500   21.0841    0.4265 H   0  0  0  0  0  0  0  0  0  0  0  0
   -1.6507   18.9393   -0.2831 H   0  0  0  0  0  0  0  0  0  0  0  0
   -1.6334   19.8801   -1.8132 H   0  0  0  0  0  0  0  0  0  0  0  0
   -1.1294   18.1560   -1.8132 H   0  0  0  0  0  0  0  0  0  0  0  0
    2.5737   14.8154    0.3765 H   0  0  0  0  0  0  0  0  0  0  0  0
    0.6942   16.2409    0.8974 H   0  0  0  0  0  0  0  0  0  0  0  0
    0.9130   17.2007   -0.5814 H   0  0  0  0  0  0  0  0  0  0  0  0
   -1.0997   15.2140   -0.1733 H   0  0  0  0  0  0  0  0  0  0  0  0
   -0.6655   15.8707   -1.7495 H   0  0  0  0  0  0  0  0  0  0  0  0
    0.3926   13.8707    0.9641 H   0  0  0  0  0  0  0  0  0  0  0  0
   -0.5579   12.5856    0.1444 H   0  0  0  0  0  0  0  0  0  0  0  0
    1.2370   12.5136    0.1444 H   0  0  0  0  0  0  0  0  0  0  0  0
   -0.2804   13.9707   -3.2027 H   0  0  0  0  0  0  0  0  0  0  0  0
   -2.1863   13.5210   -1.5274 H   0  0  0  0  0  0  0  0  0  0  0  0
   -2.1605   12.7112   -3.1805 H   0  0  0  0  0  0  0  0  0  0  0  0
   -2.8737   11.1923   -1.1487 H   0  0  0  0  0  0  0  0  0  0  0  0
    1.1486   10.8672   -1.2389 H   0  0  0  0  0  0  0  0  0  0  0  0
    0.1990    9.2888   -3.7100 H   0  0  0  0  0  0  0  0  0  0  0  0
    1.9182    9.5455   -3.1723 H   0  0  0  0  0  0  0  0  0  0  0  0
    1.0820    7.2895   -2.5944 H   0  0  0  0  0  0  0  0  0  0  0  0
    1.5053    8.2799   -1.1432 H   0  0  0  0  0  0  0  0  0  0  0  0
   -0.5531    7.1248   -0.7126 H   0  0  0  0  0  0  0  0  0  0  0  0
   -0.9850    7.7680   -3.3370 H   0  0  0  0  0  0  0  0  0  0  0  0
   -1.0470    9.2034    1.5399 H   0  0  0  0  0  0  0  0  0  0  0  0
    0.4264    8.5494    0.7473 H   0  0  0  0  0  0  0  0  0  0  0  0
    0.1167   10.3188    0.7473 H   0  0  0  0  0  0  0  0  0  0  0  0
   -2.7022    8.8897    0.8446 H   0  0  0  0  0  0  0  0  0  0  0  0
   -3.2492    9.6999   -0.6624 H   0  0  0  0  0  0  0  0  0  0  0  0
   -2.9135    7.9353   -0.6624 H   0  0  0  0  0  0  0  0  0  0  0  0
   -0.7682   11.2053   -4.4104 H   0  0  0  0  0  0  0  0  0  0  0  0
    0.0507   12.7164   -4.9324 H   0  0  0  0  0  0  0  0  0  0  0  0
    0.9500   11.1615   -4.9324 H   0  0  0  0  0  0  0  0  0  0  0  0
    2.7352   11.4448   -3.0064 H   0  0  0  0  0  0  0  0  0  0  0  0
    2.2777   12.9889   -3.9233 H   0  0  0  0  0  0  0  0  0  0  0  0
    2.7562   12.6795   -0.9461 H   0  0  0  0  0  0  0  0  0  0  0  0
    3.7250   13.6119   -2.1538 H   0  0  0  0  0  0  0  0  0  0  0  0
    1.8976   16.4209   -2.7021 H   0  0  0  0  0  0  0  0  0  0  0  0
    2.7481   15.0875   -3.5537 H   0  0  0  0  0  0  0  0  0  0  0  0
    0.9530   15.1524   -3.5537 H   0  0  0  0  0  0  0  0  0  0  0  0
  1  2  1  0
  2  3  1  0
  3  4  1  0
  4  5  1  0
  5  6  1  0
  6  7  1  0
  7  8  1  0
  7  9  1  0
  2 10  1  0
 10 11  1  0
 11 12  1  0
 12 13  1  0
 13 14  1  1
 13 15  1  0
 15 16  1  0
 16 17  1  0
 17 18  2  0
 18 19  1  0
 19 20  1  0
 20 21  1  0
 21 22  1  0
 22 23  1  0
 22 24  1  0
 24 25  1  0
 24 26  1  0
 19 27  1  0
 27 28  1  6
 27 29  1  0
 29 30  1  0
 30 31  1  0
 31 32  1  6
  7  5  1  0
 31 10  1  0
 31 13  1  0
 27 15  1  0
 24 18  1  0
  1 33  1  0
  1 34  1  0
  1 35  1  0
  2 36  1  6
  3 37  1  0
  3 38  1  0
  4 39  1  0
  4 40  1  0
  5 41  1  6
  8 42  1  0
  8 43  1  0
  8 44  1  0
  9 45  1  0
  9 46  1  0
  9 47  1  0
 10 48  1  1
 11 49  1  0
 11 50  1  0
 12 51  1  0
 12 52  1  0
 14 53  1  0
 14 54  1  0
 14 55  1  0
 15 56  1  6
 16 57  1  0
 16 58  1  0
 17 59  1  0
 19 60  1  1
 20 61  1  0
 20 62  1  0
 21 63  1  0
 21 64  1  0
 22 65  1  1
 23 66  1  0
 25 67  1  0
 25 68  1  0
 25 69  1  0
 26 70  1  0
 26 71  1  0
 26 72  1  0
 28 73  1  0
 28 74  1  0
 28 75  1  0
 29 76  1  0
 29 77  1  0
 30 78  1  0
 30 79  1  0
 32 80  1  0
 32 81  1  0
 32 82  1  0
M  END
>  <meeko>  (13) 
{"is_sidechain": [false], "intermolecular_energy": 2.731, "internal_energy": -0.839}

$$$$
EPH_relaxed_0001_pdb2pqr_Repair_27_r2_0001_out
     RDKit          3D

 82 86  0  0  0  0  0  0  0  0999 V2000
   -2.0340    7.8590   -2.0440 C   0  0  0  0  0  0  0  0  0  0  0  0
   -2.2970    8.5950   -0.7270 C   0  0  2  0  0  0  0  0  0  0  0  0
   -3.7990    8.6500   -0.3820 C   0  0  0  0  0  0  0  0  0  0  0  0
   -4.5200    7.3100   -0.5550 C   0  0  0  0  0  0  0  0  0  0  0  0
   -5.9450    7.4980   -0.9780 C   0  0  2  0  0  0  0  0  0  0  0  0
   -6.6520    6.2820   -1.2580 O   0  0  0  0  0  0  0  0  0  0  0  0
   -6.4550    7.1710   -2.3690 C   0  0  0  0  0  0  0  0  0  0  0  0
   -5.5450    6.6310   -3.4270 C   0  0  0  0  0  0  0  0  0  0  0  0
   -7.7130    7.8310   -2.8430 C   0  0  0  0  0  0  0  0  0  0  0  0
   -1.7270   10.0060   -0.7980 C   0  0  1  0  0  0  0  0  0  0  0  0
   -1.2300   10.5200    0.5800 C   0  0  0  0  0  0  0  0  0  0  0  0
    0.0130   11.4050    0.3060 C   0  0  0  0  0  0  0  0  0  0  0  0
   -0.0070   11.6420   -1.2220 C   0  0  1  0  0  0  0  0  0  0  0  0
   -1.0340   12.7980   -1.4360 C   0  0  0  0  0  0  0  0  0  0  0  0
    1.3700   11.9630   -1.8890 C   0  0  2  0  0  0  0  0  0  0  0  0
    2.0440   13.2590   -1.4050 C   0  0  0  0  0  0  0  0  0  0  0  0
    1.6990   14.4860   -2.1830 C   0  0  0  0  0  0  0  0  0  0  0  0
    1.1110   14.5050   -3.3940 C   0  0  0  0  0  0  0  0  0  0  0  0
    0.8200   13.2010   -4.1490 C   0  0  1  0  0  0  0  0  0  0  0  0
    1.2760   13.3450   -5.6250 C   0  0  0  0  0  0  0  0  0  0  0  0
    0.6660   14.5640   -6.3090 C   0  0  0  0  0  0  0  0  0  0  0  0
    1.0260   15.8460   -5.5620 C   0  0  2  0  0  0  0  0  0  0  0  0
    2.4350   16.0670   -5.6780 O   0  0  0  0  0  0  0  0  0  0  0  0
    0.6230   15.8140   -4.0620 C   0  0  0  0  0  0  0  0  0  0  0  0
   -0.9190   15.8790   -3.9350 C   0  0  0  0  0  0  0  0  0  0  0  0
    1.1680   17.1060   -3.3940 C   0  0  0  0  0  0  0  0  0  0  0  0
    1.3630   11.8710   -3.4690 C   0  0  1  0  0  0  0  0  0  0  0  0
    2.8360   11.6120   -3.9070 C   0  0  0  0  0  0  0  0  0  0  0  0
    0.5220   10.6470   -3.9930 C   0  0  0  0  0  0  0  0  0  0  0  0
   -0.7660   10.3060   -3.2190 C   0  0  0  0  0  0  0  0  0  0  0  0
   -0.4970   10.2320   -1.7130 C   0  0  2  0  0  0  0  0  0  0  0  0
    0.5160    9.0620   -1.4650 C   0  0  0  0  0  0  0  0  0  0  0  0
   -1.6709    6.8429   -1.8300 H   0  0  0  0  0  0  0  0  0  0  0  0
   -2.9669    7.8005   -2.6240 H   0  0  0  0  0  0  0  0  0  0  0  0
   -1.2753    8.4049   -2.6240 H   0  0  0  0  0  0  0  0  0  0  0  0
   -1.7953    8.0310    0.0732 H   0  0  0  0  0  0  0  0  0  0  0  0
   -3.9032    8.9676    0.6660 H   0  0  0  0  0  0  0  0  0  0  0  0
   -4.2642    9.3582   -1.0835 H   0  0  0  0  0  0  0  0  0  0  0  0
   -3.9958    6.7194   -1.3208 H   0  0  0  0  0  0  0  0  0  0  0  0
   -4.5158    6.7907    0.4147 H   0  0  0  0  0  0  0  0  0  0  0  0
   -6.0372    8.3969   -0.3507 H   0  0  0  0  0  0  0  0  0  0  0  0
   -4.6914    6.1245   -2.9529 H   0  0  0  0  0  0  0  0  0  0  0  0
   -6.0957    5.9134   -4.0529 H   0  0  0  0  0  0  0  0  0  0  0  0
   -5.1790    7.4582   -4.0529 H   0  0  0  0  0  0  0  0  0  0  0  0
   -8.3117    8.1451   -1.9753 H   0  0  0  0  0  0  0  0  0  0  0  0
   -7.4584    8.7117   -3.4509 H   0  0  0  0  0  0  0  0  0  0  0  0
   -8.2929    7.1210   -3.4509 H   0  0  0  0  0  0  0  0  0  0  0  0
   -2.6008   10.5367   -1.2040 H   0  0  0  0  0  0  0  0  0  0  0  0
   -2.0167   11.1131    1.0692 H   0  0  0  0  0  0  0  0  0  0  0  0
   -0.9787    9.6819    1.2467 H   0  0  0  0  0  0  0  0  0  0  0  0
   -0.0624   12.3592    0.8481 H   0  0  0  0  0  0  0  0  0  0  0  0
    0.9462   10.9297    0.6425 H   0  0  0  0  0  0  0  0  0  0  0  0
   -1.3697   13.1758   -0.4590 H   0  0  0  0  0  0  0  0  0  0  0  0
   -0.5566   13.6129   -1.9999 H   0  0  0  0  0  0  0  0  0  0  0  0
   -1.8995   12.4199   -1.9999 H   0  0  0  0  0  0  0  0  0  0  0  0
    2.0046   11.1419   -1.5242 H   0  0  0  0  0  0  0  0  0  0  0  0
    1.7484   13.4256   -0.3586 H   0  0  0  0  0  0  0  0  0  0  0  0
    3.1254   13.1079   -1.5384 H   0  0  0  0  0  0  0  0  0  0  0  0
    1.9462   15.4566   -1.7281 H   0  0  0  0  0  0  0  0  0  0  0  0
   -0.2703   13.0613   -4.1074 H   0  0  0  0  0  0  0  0  0  0  0  0
    2.3717   13.4392   -5.6480 H   0  0  0  0  0  0  0  0  0  0  0  0
    0.9351   12.4515   -6.1686 H   0  0  0  0  0  0  0  0  0  0  0  0
    1.0481   14.6279   -7.3385 H   0  0  0  0  0  0  0  0  0  0  0  0
   -0.4285   14.4544   -6.3110 H   0  0  0  0  0  0  0  0  0  0  0  0
    0.4565   16.6672   -6.0218 H   0  0  0  0  0  0  0  0  0  0  0  0
    2.6420   16.1590   -6.6230 H   0  0  0  0  0  0  0  0  0  0  0  0
   -1.1991   15.8908   -2.8713 H   0  0  0  0  0  0  0  0  0  0  0  0
   -1.2888   16.7935   -4.4217 H   0  0  0  0  0  0  0  0  0  0  0  0
   -1.3644   14.9988   -4.4217 H   0  0  0  0  0  0  0  0  0  0  0  0
    1.1233   17.0000   -2.3000 H   0  0  0  0  0  0  0  0  0  0  0  0
    2.2109   17.2674   -3.7044 H   0  0  0  0  0  0  0  0  0  0  0  0
    0.5558   17.9656   -3.7044 H   0  0  0  0  0  0  0  0  0  0  0  0
    3.4696   11.5006   -3.0148 H   0  0  0  0  0  0  0  0  0  0  0  0
    2.8835   10.6917   -4.5077 H   0  0  0  0  0  0  0  0  0  0  0  0
    3.1946   12.4609   -4.5077 H   0  0  0  0  0  0  0  0  0  0  0  0
    0.2380   10.8599   -5.0342 H   0  0  0  0  0  0  0  0  0  0  0  0
    1.1759    9.7721   -3.8629 H   0  0  0  0  0  0  0  0  0  0  0  0
   -1.5188   11.0844   -3.4123 H   0  0  0  0  0  0  0  0  0  0  0  0
   -1.1303    9.3253   -3.5589 H   0  0  0  0  0  0  0  0  0  0  0  0
    0.6456    8.9124   -0.3830 H   0  0  0  0  0  0  0  0  0  0  0  0
    0.1277    8.1384   -1.9190 H   0  0  0  0  0  0  0  0  0  0  0  0
    1.4857    9.3141   -1.9190 H   0  0  0  0  0  0  0  0  0  0  0  0
  1  2  1  0
  2  3  1  0
  3  4  1  0
  4  5  1  0
  5  6  1  0
  6  7  1  0
  7  8  1  0
  7  9  1  0
  2 10  1  0
 10 11  1  0
 11 12  1  0
 12 13  1  0
 13 14  1  1
 13 15  1  0
 15 16  1  0
 16 17  1  0
 17 18  2  0
 18 19  1  0
 19 20  1  0
 20 21  1  0
 21 22  1  0
 22 23  1  0
 22 24  1  0
 24 25  1  0
 24 26  1  0
 19 27  1  0
 27 28  1  6
 27 29  1  0
 29 30  1  0
 30 31  1  0
 31 32  1  6
  7  5  1  0
 31 10  1  0
 31 13  1  0
 27 15  1  0
 24 18  1  0
  1 33  1  0
  1 34  1  0
  1 35  1  0
  2 36  1  1
  3 37  1  0
  3 38  1  0
  4 39  1  0
  4 40  1  0
  5 41  1  1
  8 42  1  0
  8 43  1  0
  8 44  1  0
  9 45  1  0
  9 46  1  0
  9 47  1  0
 10 48  1  6
 11 49  1  0
 11 50  1  0
 12 51  1  0
 12 52  1  0
 14 53  1  0
 14 54  1  0
 14 55  1  0
 15 56  1  1
 16 57  1  0
 16 58  1  0
 17 59  1  0
 19 60  1  6
 20 61  1  0
 20 62  1  0
 21 63  1  0
 21 64  1  0
 22 65  1  6
 23 66  1  0
 25 67  1  0
 25 68  1  0
 25 69  1  0
 26 70  1  0
 26 71  1  0
 26 72  1  0
 28 73  1  0
 28 74  1  0
 28 75  1  0
 29 76  1  0
 29 77  1  0
 30 78  1  0
 30 79  1  0
 32 80  1  0
 32 81  1  0
 32 82  1  0
M  END
>  <meeko>  (14) 
{"is_sidechain": [false], "intermolecular_energy": 2.731, "internal_energy": -0.839}

$$$$
EPH_relaxed_0001_pdb2pqr_Repair_27_r2_0001_out
     RDKit          3D

 82 86  0  0  0  0  0  0  0  0999 V2000
    2.8520   11.2990   -5.2080 C   0  0  0  0  0  0  0  0  0  0  0  0
    1.7850   11.0070   -4.1500 C   0  0  2  0  0  0  0  0  0  0  0  0
    0.6680   10.0900   -4.6880 C   0  0  0  0  0  0  0  0  0  0  0  0
   -0.4120    9.7630   -3.6530 C   0  0  0  0  0  0  0  0  0  0  0  0
    0.1490    9.0080   -2.4860 C   0  0  2  0  0  0  0  0  0  0  0  0
   -0.6710    7.9280   -2.0210 O   0  0  0  0  0  0  0  0  0  0  0  0
   -0.4780    9.0180   -1.1040 C   0  0  0  0  0  0  0  0  0  0  0  0
   -1.7210    9.7990   -0.8170 C   0  0  0  0  0  0  0  0  0  0  0  0
    0.3790    8.6700    0.0730 C   0  0  0  0  0  0  0  0  0  0  0  0
    1.1860   12.3140   -3.6420 C   0  0  1  0  0  0  0  0  0  0  0  0
   -0.3500   12.2270   -3.4360 C   0  0  0  0  0  0  0  0  0  0  0  0
   -0.6870   13.1090   -2.2060 C   0  0  0  0  0  0  0  0  0  0  0  0
    0.5990   13.9300   -1.9510 C   0  0  1  0  0  0  0  0  0  0  0  0
    0.5320   15.1080   -2.9720 C   0  0  0  0  0  0  0  0  0  0  0  0
    0.8120   14.4440   -0.4900 C   0  0  2  0  0  0  0  0  0  0  0  0
   -0.2600   15.4220    0.0210 C   0  0  0  0  0  0  0  0  0  0  0  0
    0.0240   16.8660   -0.2290 C   0  0  0  0  0  0  0  0  0  0  0  0
    1.2180   17.3790   -0.5810 C   0  0  0  0  0  0  0  0  0  0  0  0
    2.4640   16.4890   -0.6650 C   0  0  1  0  0  0  0  0  0  0  0  0
    3.6490   17.1870    0.0520 C   0  0  0  0  0  0  0  0  0  0  0  0
    3.9020   18.5970   -0.4750 C   0  0  0  0  0  0  0  0  0  0  0  0
    2.6590   19.4680   -0.3210 C   0  0  2  0  0  0  0  0  0  0  0  0
    2.4090   19.6720    1.0730 O   0  0  0  0  0  0  0  0  0  0  0  0
    1.3970   18.8610   -0.9950 C   0  0  0  0  0  0  0  0  0  0  0  0
    1.5510   18.9190   -2.5350 C   0  0  0  0  0  0  0  0  0  0  0  0
    0.1860   19.7660   -0.6450 C   0  0  0  0  0  0  0  0  0  0  0  0
    2.2720   14.9820   -0.1980 C   0  0  1  0  0  0  0  0  0  0  0  0
    2.4880   14.8700    1.3420 C   0  0  0  0  0  0  0  0  0  0  0  0
    3.3830   14.0900   -0.8680 C   0  0  0  0  0  0  0  0  0  0  0  0
    3.0650   13.5130   -2.2610 C   0  0  0  0  0  0  0  0  0  0  0  0
    1.6880   12.8430   -2.2750 C   0  0  2  0  0  0  0  0  0  0  0  0
    1.7320   11.6390   -1.2730 C   0  0  0  0  0  0  0  0  0  0  0  0
    3.7990   11.5582   -4.7119 H   0  0  0  0  0  0  0  0  0  0  0  0
    2.9990   10.4080   -5.8362 H   0  0  0  0  0  0  0  0  0  0  0  0
    2.5248   12.1406   -5.8362 H   0  0  0  0  0  0  0  0  0  0  0  0
    2.2772   10.4760   -3.3219 H   0  0  0  0  0  0  0  0  0  0  0  0
    0.1896   10.5903   -5.5429 H   0  0  0  0  0  0  0  0  0  0  0  0
    1.1416    9.1381   -4.9700 H   0  0  0  0  0  0  0  0  0  0  0  0
   -0.8544   10.7026   -3.2903 H   0  0  0  0  0  0  0  0  0  0  0  0
   -1.1710    9.1311   -4.1374 H   0  0  0  0  0  0  0  0  0  0  0  0
    1.1771    9.1918   -2.8312 H   0  0  0  0  0  0  0  0  0  0  0  0
   -1.8572    9.8846    0.2712 H   0  0  0  0  0  0  0  0  0  0  0  0
   -1.6321   10.8039   -1.2556 H   0  0  0  0  0  0  0  0  0  0  0  0
   -2.5878    9.2829   -1.2556 H   0  0  0  0  0  0  0  0  0  0  0  0
   -0.1666    8.8916    1.0021 H   0  0  0  0  0  0  0  0  0  0  0  0
    0.6288    7.5992    0.0409 H   0  0  0  0  0  0  0  0  0  0  0  0
    1.3046    9.2635    0.0409 H   0  0  0  0  0  0  0  0  0  0  0  0
    1.5083   12.9898   -4.4479 H   0  0  0  0  0  0  0  0  0  0  0  0
   -0.8736   12.6036   -4.3271 H   0  0  0  0  0  0  0  0  0  0  0  0
   -0.6686   11.1865   -3.2751 H   0  0  0  0  0  0  0  0  0  0  0  0
   -1.5352   13.7740   -2.4256 H   0  0  0  0  0  0  0  0  0  0  0  0
   -0.9803   12.5104   -1.3310 H   0  0  0  0  0  0  0  0  0  0  0  0
    0.4777   16.0623   -2.4277 H   0  0  0  0  0  0  0  0  0  0  0  0
    1.4322   15.0971   -3.6040 H   0  0  0  0  0  0  0  0  0  0  0  0
   -0.3612   14.9951   -3.6040 H   0  0  0  0  0  0  0  0  0  0  0  0
    0.6855   13.5262    0.1030 H   0  0  0  0  0  0  0  0  0  0  0  0
   -1.2110   15.1722   -0.4722 H   0  0  0  0  0  0  0  0  0  0  0  0
   -0.2860   15.3015    1.1141 H   0  0  0  0  0  0  0  0  0  0  0  0
   -0.8131   17.5706   -0.1161 H   0  0  0  0  0  0  0  0  0  0  0  0
    2.6877   16.3804   -1.7365 H   0  0  0  0  0  0  0  0  0  0  0  0
    3.4248   17.2472    1.1272 H   0  0  0  0  0  0  0  0  0  0  0  0
    4.5536   16.5911   -0.1396 H   0  0  0  0  0  0  0  0  0  0  0  0
    4.7306   19.0491    0.0898 H   0  0  0  0  0  0  0  0  0  0  0  0
    4.1550   18.5322   -1.5435 H   0  0  0  0  0  0  0  0  0  0  0  0
    2.8591   20.4210   -0.8326 H   0  0  0  0  0  0  0  0  0  0  0  0
    2.2480   20.6210    1.2070 H   0  0  0  0  0  0  0  0  0  0  0  0
    2.5525   19.2962   -2.7894 H   0  0  0  0  0  0  0  0  0  0  0  0
    1.4215   17.9105   -2.9547 H   0  0  0  0  0  0  0  0  0  0  0  0
    0.7884   19.5915   -2.9547 H   0  0  0  0  0  0  0  0  0  0  0  0
    0.0872   19.8398    0.4481 H   0  0  0  0  0  0  0  0  0  0  0  0
    0.3438   20.7693   -1.0675 H   0  0  0  0  0  0  0  0  0  0  0  0
   -0.7315   19.3304   -1.0675 H   0  0  0  0  0  0  0  0  0  0  0  0
    1.6294   15.3152    1.8660 H   0  0  0  0  0  0  0  0  0  0  0  0
    2.5801   13.8106    1.6233 H   0  0  0  0  0  0  0  0  0  0  0  0
    3.4069   15.4052    1.6233 H   0  0  0  0  0  0  0  0  0  0  0  0
    4.2909   14.7039   -0.9616 H   0  0  0  0  0  0  0  0  0  0  0  0
    3.4841   13.2142   -0.2102 H   0  0  0  0  0  0  0  0  0  0  0  0
    3.0761   14.3283   -2.9994 H   0  0  0  0  0  0  0  0  0  0  0  0
    3.8252   12.7579   -2.5100 H   0  0  0  0  0  0  0  0  0  0  0  0
    1.7181   12.0200   -0.2412 H   0  0  0  0  0  0  0  0  0  0  0  0
    0.8569   10.9931   -1.4372 H   0  0  0  0  0  0  0  0  0  0  0  0
    2.6520   11.0587   -1.4372 H   0  0  0  0  0  0  0  0  0  0  0  0
  1  2  1  0
  2  3  1  0
  3  4  1  0
  4  5  1  0
  5  6  1  0
  6  7  1  0
  7  8  1  0
  7  9  1  0
  2 10  1  0
 10 11  1  0
 11 12  1  0
 12 13  1  0
 13 14  1  6
 13 15  1  0
 15 16  1  0
 16 17  1  0
 17 18  2  0
 18 19  1  0
 19 20  1  0
 20 21  1  0
 21 22  1  0
 22 23  1  0
 22 24  1  0
 24 25  1  0
 24 26  1  0
 19 27  1  0
 27 28  1  1
 27 29  1  0
 29 30  1  0
 30 31  1  0
 31 32  1  1
  7  5  1  0
 31 10  1  0
 31 13  1  0
 27 15  1  0
 24 18  1  0
  1 33  1  0
  1 34  1  0
  1 35  1  0
  2 36  1  1
  3 37  1  0
  3 38  1  0
  4 39  1  0
  4 40  1  0
  5 41  1  1
  8 42  1  0
  8 43  1  0
  8 44  1  0
  9 45  1  0
  9 46  1  0
  9 47  1  0
 10 48  1  6
 11 49  1  0
 11 50  1  0
 12 51  1  0
 12 52  1  0
 14 53  1  0
 14 54  1  0
 14 55  1  0
 15 56  1  1
 16 57  1  0
 16 58  1  0
 17 59  1  0
 19 60  1  6
 20 61  1  0
 20 62  1  0
 21 63  1  0
 21 64  1  0
 22 65  1  6
 23 66  1  0
 25 67  1  0
 25 68  1  0
 25 69  1  0
 26 70  1  0
 26 71  1  0
 26 72  1  0
 28 73  1  0
 28 74  1  0
 28 75  1  0
 29 76  1  0
 29 77  1  0
 30 78  1  0
 30 79  1  0
 32 80  1  0
 32 81  1  0
 32 82  1  0
M  END
>  <meeko>  (15) 
{"is_sidechain": [false], "intermolecular_energy": 2.731, "internal_energy": -0.839}

$$$$
EPH_relaxed_0001_pdb2pqr_Repair_27_r2_0001_out
     RDKit          3D

 82 86  0  0  0  0  0  0  0  0999 V2000
   -1.8450    9.5650   -0.0640 C   0  0  0  0  0  0  0  0  0  0  0  0
   -1.5480   10.5690   -1.1820 C   0  0  2  0  0  0  0  0  0  0  0  0
   -0.7090    9.9460   -2.3150 C   0  0  0  0  0  0  0  0  0  0  0  0
    0.6550    9.4240   -1.8550 C   0  0  0  0  0  0  0  0  0  0  0  0
    1.7680    9.9560   -2.7060 C   0  0  2  0  0  0  0  0  0  0  0  0
    2.9450    9.1380   -2.7320 O   0  0  0  0  0  0  0  0  0  0  0  0
    3.0920   10.4410   -2.1450 C   0  0  0  0  0  0  0  0  0  0  0  0
    3.3710   10.4180   -0.6750 C   0  0  0  0  0  0  0  0  0  0  0  0
    3.9150   11.3840   -2.9660 C   0  0  0  0  0  0  0  0  0  0  0  0
   -0.8300   11.7860   -0.6100 C   0  0  1  0  0  0  0  0  0  0  0  0
    0.3440   11.3990    0.3300 C   0  0  0  0  0  0  0  0  0  0  0  0
    1.4480   12.4680    0.1270 C   0  0  0  0  0  0  0  0  0  0  0  0
    0.7530   13.6040   -0.6600 C   0  0  1  0  0  0  0  0  0  0  0  0
   -0.0200   14.4250    0.4190 C   0  0  0  0  0  0  0  0  0  0  0  0
    1.6840   14.5160   -1.5230 C   0  0  2  0  0  0  0  0  0  0  0  0
    2.7320   15.3160   -0.7290 C   0  0  0  0  0  0  0  0  0  0  0  0
    2.2930   16.6700   -0.2770 C   0  0  0  0  0  0  0  0  0  0  0  0
    1.2190   17.3370   -0.7360 C   0  0  0  0  0  0  0  0  0  0  0  0
    0.3710   16.7720   -1.8830 C   0  0  1  0  0  0  0  0  0  0  0  0
    0.0930   17.8900   -2.9210 C   0  0  0  0  0  0  0  0  0  0  0  0
   -0.5310   19.1310   -2.2910 C   0  0  0  0  0  0  0  0  0  0  0  0
    0.3680   19.6980   -1.1950 C   0  0  2  0  0  0  0  0  0  0  0  0
    1.5680   20.1940   -1.7950 O   0  0  0  0  0  0  0  0  0  0  0  0
    0.7240   18.6580   -0.0970 C   0  0  0  0  0  0  0  0  0  0  0  0
   -0.5340   18.3460    0.7520 C   0  0  0  0  0  0  0  0  0  0  0  0
    1.7470   19.3150    0.8690 C   0  0  0  0  0  0  0  0  0  0  0  0
    0.9140   15.4370   -2.5540 C   0  0  1  0  0  0  0  0  0  0  0  0
    1.9300   15.7850   -3.6850 C   0  0  0  0  0  0  0  0  0  0  0  0
   -0.2830   14.6870   -3.2480 C   0  0  0  0  0  0  0  0  0  0  0  0
   -1.0910   13.7080   -2.3740 C   0  0  0  0  0  0  0  0  0  0  0  0
   -0.1610   12.7550   -1.6160 C   0  0  2  0  0  0  0  0  0  0  0  0
    0.6130   11.9000   -2.6760 C   0  0  0  0  0  0  0  0  0  0  0  0
   -1.7014   10.0505    0.9125 H   0  0  0  0  0  0  0  0  0  0  0  0
   -2.8847    9.2165   -0.1508 H   0  0  0  0  0  0  0  0  0  0  0  0
   -1.1622    8.7069   -0.1508 H   0  0  0  0  0  0  0  0  0  0  0  0
   -2.5112   10.8754   -1.6159 H   0  0  0  0  0  0  0  0  0  0  0  0
   -1.2751    9.1066   -2.7451 H   0  0  0  0  0  0  0  0  0  0  0  0
   -0.5176   10.7428   -3.0488 H   0  0  0  0  0  0  0  0  0  0  0  0
    0.8229    9.7350   -0.8133 H   0  0  0  0  0  0  0  0  0  0  0  0
    0.6500    8.3276   -1.9432 H   0  0  0  0  0  0  0  0  0  0  0  0
    1.0491   10.4142   -3.4011 H   0  0  0  0  0  0  0  0  0  0  0  0
    2.4240   10.4961   -0.1208 H   0  0  0  0  0  0  0  0  0  0  0  0
    3.8732    9.4754   -0.4118 H   0  0  0  0  0  0  0  0  0  0  0  0
    4.0208   11.2656   -0.4118 H   0  0  0  0  0  0  0  0  0  0  0  0
    4.4906   12.0436   -2.2999 H   0  0  0  0  0  0  0  0  0  0  0  0
    4.6063   10.8101   -3.6007 H   0  0  0  0  0  0  0  0  0  0  0  0
    3.2529   11.9913   -3.6007 H   0  0  0  0  0  0  0  0  0  0  0  0
   -1.6765   12.2841   -0.1147 H   0  0  0  0  0  0  0  0  0  0  0  0
    0.0065   11.3967    1.3769 H   0  0  0  0  0  0  0  0  0  0  0  0
    0.7210   10.3919    0.0983 H   0  0  0  0  0  0  0  0  0  0  0  0
    1.8151   12.8358    1.0965 H   0  0  0  0  0  0  0  0  0  0  0  0
    2.3232   12.0672   -0.4054 H   0  0  0  0  0  0  0  0  0  0  0  0
    0.2899   14.0959    1.4218 H   0  0  0  0  0  0  0  0  0  0  0  0
    0.2066   15.4946    0.2978 H   0  0  0  0  0  0  0  0  0  0  0  0
   -1.1013   14.2632    0.2978 H   0  0  0  0  0  0  0  0  0  0  0  0
    2.2524   13.7818   -2.1129 H   0  0  0  0  0  0  0  0  0  0  0  0
    3.0021   14.7311    0.1626 H   0  0  0  0  0  0  0  0  0  0  0  0
    3.5731   15.4831   -1.4179 H   0  0  0  0  0  0  0  0  0  0  0  0
    2.8993   17.1636    0.4968 H   0  0  0  0  0  0  0  0  0  0  0  0
   -0.5747   16.4420   -1.4282 H   0  0  0  0  0  0  0  0  0  0  0  0
    1.0437   18.1753   -3.3951 H   0  0  0  0  0  0  0  0  0  0  0  0
   -0.6227   17.4928   -3.6559 H   0  0  0  0  0  0  0  0  0  0  0  0
   -0.6760   19.8952   -3.0688 H   0  0  0  0  0  0  0  0  0  0  0  0
   -1.4955   18.8498   -1.8431 H   0  0  0  0  0  0  0  0  0  0  0  0
   -0.1887   20.5042   -0.6948 H   0  0  0  0  0  0  0  0  0  0  0  0
    1.9770   19.4620   -2.2860 H   0  0  0  0  0  0  0  0  0  0  0  0
   -0.2801   18.4090    1.8205 H   0  0  0  0  0  0  0  0  0  0  0  0
   -1.3237   19.0755    0.5191 H   0  0  0  0  0  0  0  0  0  0  0  0
   -0.8913   17.3320    0.5191 H   0  0  0  0  0  0  0  0  0  0  0  0
    1.4457   19.1215    1.9091 H   0  0  0  0  0  0  0  0  0  0  0  0
    2.7453   18.8887    0.6911 H   0  0  0  0  0  0  0  0  0  0  0  0
    1.7746   20.4002    0.6911 H   0  0  0  0  0  0  0  0  0  0  0  0
    2.8803   16.1105   -3.2368 H   0  0  0  0  0  0  0  0  0  0  0  0
    2.1042   14.8953   -4.3080 H   0  0  0  0  0  0  0  0  0  0  0  0
    1.5221   16.5947   -4.3080 H   0  0  0  0  0  0  0  0  0  0  0  0
   -0.9802   15.4500   -3.6244 H   0  0  0  0  0  0  0  0  0  0  0  0
    0.1811   14.0624   -4.0255 H   0  0  0  0  0  0  0  0  0  0  0  0
   -1.6878   14.2810   -1.6491 H   0  0  0  0  0  0  0  0  0  0  0  0
   -1.7465   13.1133   -3.0272 H   0  0  0  0  0  0  0  0  0  0  0  0
    1.2652   11.1796   -2.1606 H   0  0  0  0  0  0  0  0  0  0  0  0
   -0.1072   11.3572   -3.3059 H   0  0  0  0  0  0  0  0  0  0  0  0
    1.2245   12.5628   -3.3059 H   0  0  0  0  0  0  0  0  0  0  0  0
  1  2  1  0
  2  3  1  0
  3  4  1  0
  4  5  1  0
  5  6  1  0
  6  7  1  0
  7  8  1  0
  7  9  1  0
  2 10  1  0
 10 11  1  0
 11 12  1  0
 12 13  1  0
 13 14  1  1
 13 15  1  0
 15 16  1  0
 16 17  1  0
 17 18  2  0
 18 19  1  0
 19 20  1  0
 20 21  1  0
 21 22  1  0
 22 23  1  0
 22 24  1  0
 24 25  1  0
 24 26  1  0
 19 27  1  0
 27 28  1  6
 27 29  1  0
 29 30  1  0
 30 31  1  0
 31 32  1  6
  7  5  1  0
 31 10  1  0
 31 13  1  0
 27 15  1  0
 24 18  1  0
  1 33  1  0
  1 34  1  0
  1 35  1  0
  2 36  1  6
  3 37  1  0
  3 38  1  0
  4 39  1  0
  4 40  1  0
  5 41  1  6
  8 42  1  0
  8 43  1  0
  8 44  1  0
  9 45  1  0
  9 46  1  0
  9 47  1  0
 10 48  1  1
 11 49  1  0
 11 50  1  0
 12 51  1  0
 12 52  1  0
 14 53  1  0
 14 54  1  0
 14 55  1  0
 15 56  1  6
 16 57  1  0
 16 58  1  0
 17 59  1  0
 19 60  1  1
 20 61  1  0
 20 62  1  0
 21 63  1  0
 21 64  1  0
 22 65  1  1
 23 66  1  0
 25 67  1  0
 25 68  1  0
 25 69  1  0
 26 70  1  0
 26 71  1  0
 26 72  1  0
 28 73  1  0
 28 74  1  0
 28 75  1  0
 29 76  1  0
 29 77  1  0
 30 78  1  0
 30 79  1  0
 32 80  1  0
 32 81  1  0
 32 82  1  0
M  END
>  <meeko>  (16) 
{"is_sidechain": [false], "intermolecular_energy": 2.731, "internal_energy": -0.839}

$$$$
EPH_relaxed_0001_pdb2pqr_Repair_27_r2_0001_out
     RDKit          3D

 82 86  0  0  0  0  0  0  0  0999 V2000
    0.9670   14.9550   -2.6550 C   0  0  0  0  0  0  0  0  0  0  0  0
    1.2020   14.2790   -4.0080 C   0  0  2  0  0  0  0  0  0  0  0  0
    0.4750   15.0070   -5.1560 C   0  0  0  0  0  0  0  0  0  0  0  0
    0.9700   14.6090   -6.5490 C   0  0  0  0  0  0  0  0  0  0  0  0
    0.7550   15.7050   -7.5480 C   0  0  2  0  0  0  0  0  0  0  0  0
    0.4040   15.2560   -8.8640 O   0  0  0  0  0  0  0  0  0  0  0  0
    1.6620   15.9400   -8.7410 C   0  0  0  0  0  0  0  0  0  0  0  0
    2.8540   15.0710   -8.9980 C   0  0  0  0  0  0  0  0  0  0  0  0
    1.6750   17.2960   -9.3750 C   0  0  0  0  0  0  0  0  0  0  0  0
    0.7530   12.8240   -3.9470 C   0  0  1  0  0  0  0  0  0  0  0  0
    1.8810   11.8330   -4.3420 C   0  0  0  0  0  0  0  0  0  0  0  0
    1.6930   10.5690   -3.4640 C   0  0  0  0  0  0  0  0  0  0  0  0
    0.2870   10.7320   -2.8410 C   0  0  1  0  0  0  0  0  0  0  0  0
   -0.7020   10.2620   -3.9520 C   0  0  0  0  0  0  0  0  0  0  0  0
    0.0380    9.9830   -1.4910 C   0  0  2  0  0  0  0  0  0  0  0  0
    0.1430    8.4490   -1.5680 C   0  0  0  0  0  0  0  0  0  0  0  0
   -1.1330    7.7380   -1.8750 C   0  0  0  0  0  0  0  0  0  0  0  0
   -2.3660    8.2740   -1.8000 C   0  0  0  0  0  0  0  0  0  0  0  0
   -2.5730    9.7020   -1.2790 C   0  0  1  0  0  0  0  0  0  0  0  0
   -3.7400    9.7160   -0.2570 C   0  0  0  0  0  0  0  0  0  0  0  0
   -5.0210    9.1100   -0.8240 C   0  0  0  0  0  0  0  0  0  0  0  0
   -4.7890    7.6710   -1.2780 C   0  0  2  0  0  0  0  0  0  0  0  0
   -4.5160    6.8640   -0.1290 O   0  0  0  0  0  0  0  0  0  0  0  0
   -3.6280    7.5320   -2.3020 C   0  0  0  0  0  0  0  0  0  0  0  0
   -4.0510    8.1530   -3.6560 C   0  0  0  0  0  0  0  0  0  0  0  0
   -3.4070    6.0180   -2.5700 C   0  0  0  0  0  0  0  0  0  0  0  0
   -1.2740   10.4350   -0.7310 C   0  0  1  0  0  0  0  0  0  0  0  0
   -1.0590   10.0850    0.7740 C   0  0  0  0  0  0  0  0  0  0  0  0
   -1.4960   11.9930   -0.7960 C   0  0  0  0  0  0  0  0  0  0  0  0
   -1.1190   12.6930   -2.1150 C   0  0  0  0  0  0  0  0  0  0  0  0
    0.2830   12.2820   -2.5740 C   0  0  2  0  0  0  0  0  0  0  0  0
    1.3030   12.7620   -1.4850 C   0  0  0  0  0  0  0  0  0  0  0  0
    1.2117   14.2510   -1.8460 H   0  0  0  0  0  0  0  0  0  0  0  0
    1.6085   15.8448   -2.5733 H   0  0  0  0  0  0  0  0  0  0  0  0
   -0.0882   15.2550   -2.5733 H   0  0  0  0  0  0  0  0  0  0  0  0
    2.2807   14.3269   -4.2183 H   0  0  0  0  0  0  0  0  0  0  0  0
   -0.5982   14.7751   -5.0896 H   0  0  0  0  0  0  0  0  0  0  0  0
    0.6808   16.0810   -5.0367 H   0  0  0  0  0  0  0  0  0  0  0  0
    2.0451   14.3827   -6.4940 H   0  0  0  0  0  0  0  0  0  0  0  0
    0.3980   13.7287   -6.8775 H   0  0  0  0  0  0  0  0  0  0  0  0
    0.3793   16.3780   -6.7632 H   0  0  0  0  0  0  0  0  0  0  0  0
    3.2897   14.7533   -8.0392 H   0  0  0  0  0  0  0  0  0  0  0  0
    2.5449   14.1849   -9.5718 H   0  0  0  0  0  0  0  0  0  0  0  0
    3.6031   15.6364   -9.5718 H   0  0  0  0  0  0  0  0  0  0  0  0
    1.6824   18.0674   -8.5908 H   0  0  0  0  0  0  0  0  0  0  0  0
    2.5742   17.3999  -10.0000 H   0  0  0  0  0  0  0  0  0  0  0  0
    0.7780   17.4171  -10.0000 H   0  0  0  0  0  0  0  0  0  0  0  0
   -0.0951   12.8635   -4.6464 H   0  0  0  0  0  0  0  0  0  0  0  0
    1.7987   11.5702   -5.4070 H   0  0  0  0  0  0  0  0  0  0  0  0
    2.8734   12.2803   -4.1834 H   0  0  0  0  0  0  0  0  0  0  0  0
    1.7420    9.6583   -4.0790 H   0  0  0  0  0  0  0  0  0  0  0  0
    2.4787   10.4710   -2.7004 H   0  0  0  0  0  0  0  0  0  0  0  0
   -1.6016    9.8345   -3.4851 H   0  0  0  0  0  0  0  0  0  0  0  0
   -0.9864   11.1212   -4.5771 H   0  0  0  0  0  0  0  0  0  0  0  0
   -0.2154    9.4988   -4.5771 H   0  0  0  0  0  0  0  0  0  0  0  0
    0.8903   10.3112   -0.8779 H   0  0  0  0  0  0  0  0  0  0  0  0
    0.8703    8.1970   -2.3538 H   0  0  0  0  0  0  0  0  0  0  0  0
    0.4450    8.1135   -0.5649 H   0  0  0  0  0  0  0  0  0  0  0  0
   -1.0599    6.6864   -2.1893 H   0  0  0  0  0  0  0  0  0  0  0  0
   -2.8375   10.3105   -2.1564 H   0  0  0  0  0  0  0  0  0  0  0  0
   -3.4392    9.1389    0.6298 H   0  0  0  0  0  0  0  0  0  0  0  0
   -3.9503   10.7657   -0.0043 H   0  0  0  0  0  0  0  0  0  0  0  0
   -5.7994    9.1213   -0.0468 H   0  0  0  0  0  0  0  0  0  0  0  0
   -5.3368    9.7059   -1.6930 H   0  0  0  0  0  0  0  0  0  0  0  0
   -5.7021    7.3352   -1.7914 H   0  0  0  0  0  0  0  0  0  0  0  0
   -4.0060    6.0910   -0.4260 H   0  0  0  0  0  0  0  0  0  0  0  0
   -4.6617    9.0495   -3.4734 H   0  0  0  0  0  0  0  0  0  0  0  0
   -3.1536    8.4309   -4.2282 H   0  0  0  0  0  0  0  0  0  0  0  0
   -4.6382    7.4197   -4.2282 H   0  0  0  0  0  0  0  0  0  0  0  0
   -3.3290    5.4836   -1.6117 H   0  0  0  0  0  0  0  0  0  0  0  0
   -4.2565    5.6194   -3.1440 H   0  0  0  0  0  0  0  0  0  0  0  0
   -2.4790    5.8789   -3.1440 H   0  0  0  0  0  0  0  0  0  0  0  0
   -1.5321   10.8552    1.4008 H   0  0  0  0  0  0  0  0  0  0  0  0
   -1.5119    9.1064    0.9912 H   0  0  0  0  0  0  0  0  0  0  0  0
    0.0187   10.0466    0.9912 H   0  0  0  0  0  0  0  0  0  0  0  0
   -2.5630   12.1853   -0.6102 H   0  0  0  0  0  0  0  0  0  0  0  0
   -0.8142   12.4129   -0.0418 H   0  0  0  0  0  0  0  0  0  0  0  0
   -1.8474   12.4146   -2.8908 H   0  0  0  0  0  0  0  0  0  0  0  0
   -1.1285   13.7804   -1.9495 H   0  0  0  0  0  0  0  0  0  0  0  0
    0.8896   12.5675   -0.4844 H   0  0  0  0  0  0  0  0  0  0  0  0
    2.2500   12.2150   -1.6032 H   0  0  0  0  0  0  0  0  0  0  0  0
    1.4852   13.8404   -1.6032 H   0  0  0  0  0  0  0  0  0  0  0  0
  1  2  1  0
  2  3  1  0
  3  4  1  0
  4  5  1  0
  5  6  1  0
  6  7  1  0
  7  8  1  0
  7  9  1  0
  2 10  1  0
 10 11  1  0
 11 12  1  0
 12 13  1  0
 13 14  1  6
 13 15  1  0
 15 16  1  0
 16 17  1  0
 17 18  2  0
 18 19  1  0
 19 20  1  0
 20 21  1  0
 21 22  1  0
 22 23  1  0
 22 24  1  0
 24 25  1  0
 24 26  1  0
 19 27  1  0
 27 28  1  1
 27 29  1  0
 29 30  1  0
 30 31  1  0
 31 32  1  1
  7  5  1  0
 31 10  1  0
 31 13  1  0
 27 15  1  0
 24 18  1  0
  1 33  1  0
  1 34  1  0
  1 35  1  0
  2 36  1  6
  3 37  1  0
  3 38  1  0
  4 39  1  0
  4 40  1  0
  5 41  1  1
  8 42  1  0
  8 43  1  0
  8 44  1  0
  9 45  1  0
  9 46  1  0
  9 47  1  0
 10 48  1  6
 11 49  1  0
 11 50  1  0
 12 51  1  0
 12 52  1  0
 14 53  1  0
 14 54  1  0
 14 55  1  0
 15 56  1  1
 16 57  1  0
 16 58  1  0
 17 59  1  0
 19 60  1  6
 20 61  1  0
 20 62  1  0
 21 63  1  0
 21 64  1  0
 22 65  1  6
 23 66  1  0
 25 67  1  0
 25 68  1  0
 25 69  1  0
 26 70  1  0
 26 71  1  0
 26 72  1  0
 28 73  1  0
 28 74  1  0
 28 75  1  0
 29 76  1  0
 29 77  1  0
 30 78  1  0
 30 79  1  0
 32 80  1  0
 32 81  1  0
 32 82  1  0
M  END
>  <meeko>  (17) 
{"is_sidechain": [false], "intermolecular_energy": 2.731, "internal_energy": -0.839}

$$$$
EPH_relaxed_0001_pdb2pqr_Repair_27_r2_0001_out
     RDKit          3D

 82 86  0  0  0  0  0  0  0  0999 V2000
   -2.4070    7.7610   -0.0690 C   0  0  0  0  0  0  0  0  0  0  0  0
   -3.0070    9.1700   -0.0320 C   0  0  2  0  0  0  0  0  0  0  0  0
   -4.5080    9.1710   -0.3850 C   0  0  0  0  0  0  0  0  0  0  0  0
   -5.1360    7.7750   -0.4070 C   0  0  0  0  0  0  0  0  0  0  0  0
   -5.7970    7.4860   -1.7210 C   0  0  2  0  0  0  0  0  0  0  0  0
   -6.6720    8.5200   -2.1910 O   0  0  0  0  0  0  0  0  0  0  0  0
   -7.2900    7.2620   -1.8740 C   0  0  0  0  0  0  0  0  0  0  0  0
   -8.2130    7.3170   -0.6970 C   0  0  0  0  0  0  0  0  0  0  0  0
   -7.7820    6.5130   -3.0730 C   0  0  0  0  0  0  0  0  0  0  0  0
   -2.2470   10.0840   -0.9860 C   0  0  1  0  0  0  0  0  0  0  0  0
   -2.8910   11.4900   -1.1060 C   0  0  0  0  0  0  0  0  0  0  0  0
   -1.7290   12.5010   -1.2860 C   0  0  0  0  0  0  0  0  0  0  0  0
   -0.4930   11.6230   -1.5950 C   0  0  1  0  0  0  0  0  0  0  0  0
   -0.6070   11.2910   -3.1150 C   0  0  0  0  0  0  0  0  0  0  0  0
    0.8990   12.2410   -1.2410 C   0  0  2  0  0  0  0  0  0  0  0  0
    1.2570   13.5250   -2.0100 C   0  0  0  0  0  0  0  0  0  0  0  0
    1.9910   13.3150   -3.2940 C   0  0  0  0  0  0  0  0  0  0  0  0
    2.5960   12.1730   -3.6710 C   0  0  0  0  0  0  0  0  0  0  0  0
    2.6650   10.9680   -2.7240 C   0  0  1  0  0  0  0  0  0  0  0  0
    4.1070   10.3970   -2.7160 C   0  0  0  0  0  0  0  0  0  0  0  0
    4.6150   10.0690   -4.1170 C   0  0  0  0  0  0  0  0  0  0  0  0
    4.5860   11.3050   -5.0110 C   0  0  2  0  0  0  0  0  0  0  0  0
    5.5430   12.2500   -4.5210 O   0  0  0  0  0  0  0  0  0  0  0  0
    3.1850   11.9730   -5.0890 C   0  0  0  0  0  0  0  0  0  0  0  0
    2.2200   11.0650   -5.8920 C   0  0  0  0  0  0  0  0  0  0  0  0
    3.3260   13.2860   -5.9060 C   0  0  0  0  0  0  0  0  0  0  0  0
    2.0930   11.2030   -1.2600 C   0  0  1  0  0  0  0  0  0  0  0  0
    3.2080   11.7890   -0.3410 C   0  0  0  0  0  0  0  0  0  0  0  0
    1.6880    9.8140   -0.6380 C   0  0  0  0  0  0  0  0  0  0  0  0
    0.2600    9.3140   -0.9240 C   0  0  0  0  0  0  0  0  0  0  0  0
   -0.7730   10.4090   -0.6360 C   0  0  2  0  0  0  0  0  0  0  0  0
   -0.6970   10.7480    0.8910 C   0  0  0  0  0  0  0  0  0  0  0  0
   -2.2536    7.4007    0.9589 H   0  0  0  0  0  0  0  0  0  0  0  0
   -3.0946    7.0834   -0.5963 H   0  0  0  0  0  0  0  0  0  0  0  0
   -1.4419    7.7872   -0.5963 H   0  0  0  0  0  0  0  0  0  0  0  0
   -2.9096    9.5443    0.9978 H   0  0  0  0  0  0  0  0  0  0  0  0
   -5.0399    9.7793    0.3614 H   0  0  0  0  0  0  0  0  0  0  0  0
   -4.5988    9.5804   -1.4019 H   0  0  0  0  0  0  0  0  0  0  0  0
   -4.3488    7.0270   -0.2316 H   0  0  0  0  0  0  0  0  0  0  0  0
   -5.9031    7.7312    0.3801 H   0  0  0  0  0  0  0  0  0  0  0  0
   -4.9253    6.9067   -2.0596 H   0  0  0  0  0  0  0  0  0  0  0  0
   -7.6250    7.2820    0.2320 H   0  0  0  0  0  0  0  0  0  0  0  0
   -8.7927    8.2513   -0.7290 H   0  0  0  0  0  0  0  0  0  0  0  0
   -8.8996    6.4582   -0.7290 H   0  0  0  0  0  0  0  0  0  0  0  0
   -8.3586    5.6352   -2.7458 H   0  0  0  0  0  0  0  0  0  0  0  0
   -8.4252    7.1698   -3.6771 H   0  0  0  0  0  0  0  0  0  0  0  0
   -6.9238    6.1836   -3.6771 H   0  0  0  0  0  0  0  0  0  0  0  0
   -2.2913    9.4741   -1.9004 H   0  0  0  0  0  0  0  0  0  0  0  0
   -3.5625   11.5259   -1.9765 H   0  0  0  0  0  0  0  0  0  0  0  0
   -3.4871   11.7287   -0.2129 H   0  0  0  0  0  0  0  0  0  0  0  0
   -1.9367   13.1869   -2.1205 H   0  0  0  0  0  0  0  0  0  0  0  0
   -1.5818   13.1306   -0.3961 H   0  0  0  0  0  0  0  0  0  0  0  0
   -0.9620   10.2572   -3.2389 H   0  0  0  0  0  0  0  0  0  0  0  0
   -1.3192   11.9825   -3.5889 H   0  0  0  0  0  0  0  0  0  0  0  0
    0.3798   11.3991   -3.5889 H   0  0  0  0  0  0  0  0  0  0  0  0
    0.7614   12.5487   -0.1939 H   0  0  0  0  0  0  0  0  0  0  0  0
    0.3217   14.0579   -2.2362 H   0  0  0  0  0  0  0  0  0  0  0  0
    1.9391   14.0905   -1.3581 H   0  0  0  0  0  0  0  0  0  0  0  0
    2.0414   14.1652   -3.9902 H   0  0  0  0  0  0  0  0  0  0  0  0
    1.9702   10.2198   -3.1332 H   0  0  0  0  0  0  0  0  0  0  0  0
    4.7783   11.1413   -2.2629 H   0  0  0  0  0  0  0  0  0  0  0  0
    4.0918    9.4606   -2.1390 H   0  0  0  0  0  0  0  0  0  0  0  0
    5.6486    9.6991   -4.0477 H   0  0  0  0  0  0  0  0  0  0  0  0
    3.9606    9.3021   -4.5570 H   0  0  0  0  0  0  0  0  0  0  0  0
    4.8347   10.9796   -6.0319 H   0  0  0  0  0  0  0  0  0  0  0  0
    5.3840   13.0940   -4.9780 H   0  0  0  0  0  0  0  0  0  0  0  0
    1.6002   10.4818   -5.1951 H   0  0  0  0  0  0  0  0  0  0  0  0
    1.5719   11.6884   -6.5255 H   0  0  0  0  0  0  0  0  0  0  0  0
    2.8028   10.3802   -6.5255 H   0  0  0  0  0  0  0  0  0  0  0  0
    3.4176   14.1386   -5.2170 H   0  0  0  0  0  0  0  0  0  0  0  0
    4.2232   13.2289   -6.5399 H   0  0  0  0  0  0  0  0  0  0  0  0
    2.4372   13.4207   -6.5399 H   0  0  0  0  0  0  0  0  0  0  0  0
    2.9291   11.6424    0.7129 H   0  0  0  0  0  0  0  0  0  0  0  0
    4.1586   11.2740   -0.5438 H   0  0  0  0  0  0  0  0  0  0  0  0
    3.3229   12.8640   -0.5438 H   0  0  0  0  0  0  0  0  0  0  0  0
    2.3884    9.0593   -1.0252 H   0  0  0  0  0  0  0  0  0  0  0  0
    1.7271    9.9644    0.4510 H   0  0  0  0  0  0  0  0  0  0  0  0
    0.1869    9.0196   -1.9813 H   0  0  0  0  0  0  0  0  0  0  0  0
    0.0518    8.4547   -0.2696 H   0  0  0  0  0  0  0  0  0  0  0  0
   -0.9004    9.8406    1.4786 H   0  0  0  0  0  0  0  0  0  0  0  0
    0.3078   11.1243    1.1335 H   0  0  0  0  0  0  0  0  0  0  0  0
   -1.4450   11.5172    1.1335 H   0  0  0  0  0  0  0  0  0  0  0  0
  1  2  1  0
  2  3  1  0
  3  4  1  0
  4  5  1  0
  5  6  1  0
  6  7  1  0
  7  8  1  0
  7  9  1  0
  2 10  1  0
 10 11  1  0
 11 12  1  0
 12 13  1  0
 13 14  1  6
 13 15  1  0
 15 16  1  0
 16 17  1  0
 17 18  2  0
 18 19  1  0
 19 20  1  0
 20 21  1  0
 21 22  1  0
 22 23  1  0
 22 24  1  0
 24 25  1  0
 24 26  1  0
 19 27  1  0
 27 28  1  1
 27 29  1  0
 29 30  1  0
 30 31  1  0
 31 32  1  1
  7  5  1  0
 31 10  1  0
 31 13  1  0
 27 15  1  0
 24 18  1  0
  1 33  1  0
  1 34  1  0
  1 35  1  0
  2 36  1  1
  3 37  1  0
  3 38  1  0
  4 39  1  0
  4 40  1  0
  5 41  1  6
  8 42  1  0
  8 43  1  0
  8 44  1  0
  9 45  1  0
  9 46  1  0
  9 47  1  0
 10 48  1  6
 11 49  1  0
 11 50  1  0
 12 51  1  0
 12 52  1  0
 14 53  1  0
 14 54  1  0
 14 55  1  0
 15 56  1  1
 16 57  1  0
 16 58  1  0
 17 59  1  0
 19 60  1  6
 20 61  1  0
 20 62  1  0
 21 63  1  0
 21 64  1  0
 22 65  1  6
 23 66  1  0
 25 67  1  0
 25 68  1  0
 25 69  1  0
 26 70  1  0
 26 71  1  0
 26 72  1  0
 28 73  1  0
 28 74  1  0
 28 75  1  0
 29 76  1  0
 29 77  1  0
 30 78  1  0
 30 79  1  0
 32 80  1  0
 32 81  1  0
 32 82  1  0
M  END
>  <meeko>  (18) 
{"is_sidechain": [false], "intermolecular_energy": 2.731, "internal_energy": -0.839}

$$$$
EPH_relaxed_0001_pdb2pqr_Repair_27_r2_0001_out
     RDKit          3D

 82 86  0  0  0  0  0  0  0  0999 V2000
    3.1160   14.8720   -7.5650 C   0  0  0  0  0  0  0  0  0  0  0  0
    1.5920   14.8580   -7.4150 C   0  0  2  0  0  0  0  0  0  0  0  0
    0.9300   16.0690   -8.1010 C   0  0  0  0  0  0  0  0  0  0  0  0
    1.8410   16.7820   -9.1040 C   0  0  0  0  0  0  0  0  0  0  0  0
    1.5380   16.3760  -10.5150 C   0  0  2  0  0  0  0  0  0  0  0  0
    0.9690   15.0670  -10.6520 O   0  0  0  0  0  0  0  0  0  0  0  0
    2.2670   15.2590  -11.2390 C   0  0  0  0  0  0  0  0  0  0  0  0
    3.3570   14.4800  -10.5730 C   0  0  0  0  0  0  0  0  0  0  0  0
    2.2580   15.2520  -12.7360 C   0  0  0  0  0  0  0  0  0  0  0  0
    1.2150   14.8250   -5.9390 C   0  0  1  0  0  0  0  0  0  0  0  0
   -0.0340   15.6900   -5.6220 C   0  0  0  0  0  0  0  0  0  0  0  0
   -0.8100   14.9590   -4.4970 C   0  0  0  0  0  0  0  0  0  0  0  0
    0.1750   13.8860   -3.9760 C   0  0  1  0  0  0  0  0  0  0  0  0
    1.1210   14.6510   -2.9990 C   0  0  0  0  0  0  0  0  0  0  0  0
   -0.4650   12.6310   -3.2970 C   0  0  2  0  0  0  0  0  0  0  0  0
   -1.2740   12.9220   -2.0210 C   0  0  0  0  0  0  0  0  0  0  0  0
   -0.4980   12.8670   -0.7470 C   0  0  0  0  0  0  0  0  0  0  0  0
    0.7230   12.3210   -0.5980 C   0  0  0  0  0  0  0  0  0  0  0  0
    1.4080   11.5930   -1.7620 C   0  0  1  0  0  0  0  0  0  0  0  0
    1.9900   10.2460   -1.2590 C   0  0  0  0  0  0  0  0  0  0  0  0
    2.9130   10.4200   -0.0570 C   0  0  0  0  0  0  0  0  0  0  0  0
    2.1800   11.0950    1.1000 C   0  0  2  0  0  0  0  0  0  0  0  0
    1.1650   10.2090    1.5820 O   0  0  0  0  0  0  0  0  0  0  0  0
    1.5420   12.4580    0.7090 C   0  0  0  0  0  0  0  0  0  0  0  0
    2.6570   13.5070    0.4770 C   0  0  0  0  0  0  0  0  0  0  0  0
    0.7160   12.9630    1.9230 C   0  0  0  0  0  0  0  0  0  0  0  0
    0.5390   11.4270   -3.0830 C   0  0  1  0  0  0  0  0  0  0  0  0
   -0.3290   10.1350   -2.9900 C   0  0  0  0  0  0  0  0  0  0  0  0
    1.5040   11.2270   -4.3110 C   0  0  0  0  0  0  0  0  0  0  0  0
    2.0070   12.5020   -5.0140 C   0  0  0  0  0  0  0  0  0  0  0  0
    0.8450   13.4490   -5.3300 C   0  0  2  0  0  0  0  0  0  0  0  0
   -0.1120   12.7150   -6.3290 C   0  0  0  0  0  0  0  0  0  0  0  0
    3.5825   14.8763   -6.5688 H   0  0  0  0  0  0  0  0  0  0  0  0
    3.4384   13.9768   -8.1170 H   0  0  0  0  0  0  0  0  0  0  0  0
    3.4219   15.7730   -8.1170 H   0  0  0  0  0  0  0  0  0  0  0  0
    1.2189   13.9515   -7.9140 H   0  0  0  0  0  0  0  0  0  0  0  0
    0.0335   15.7191   -8.6338 H   0  0  0  0  0  0  0  0  0  0  0  0
    0.6914   16.7956   -7.3104 H   0  0  0  0  0  0  0  0  0  0  0  0
    1.6968   17.8682   -9.0069 H   0  0  0  0  0  0  0  0  0  0  0  0
    2.8811   16.5008   -8.8823 H   0  0  0  0  0  0  0  0  0  0  0  0
    1.3220   17.4180  -10.7937 H   0  0  0  0  0  0  0  0  0  0  0  0
    3.2485   14.5575   -9.4811 H   0  0  0  0  0  0  0  0  0  0  0  0
    3.2897   13.4242  -10.8741 H   0  0  0  0  0  0  0  0  0  0  0  0
    4.3342   14.8856  -10.8741 H   0  0  0  0  0  0  0  0  0  0  0  0
    1.4372   14.6136  -13.0948 H   0  0  0  0  0  0  0  0  0  0  0  0
    2.1137   16.2776  -13.1066 H   0  0  0  0  0  0  0  0  0  0  0  0
    3.2165   14.8597  -13.1066 H   0  0  0  0  0  0  0  0  0  0  0  0
    2.1554   15.1900   -5.5003 H   0  0  0  0  0  0  0  0  0  0  0  0
    0.2739   16.6897   -5.2819 H   0  0  0  0  0  0  0  0  0  0  0  0
   -0.6622   15.8192   -6.5157 H   0  0  0  0  0  0  0  0  0  0  0  0
   -1.0810   15.6599   -3.6937 H   0  0  0  0  0  0  0  0  0  0  0  0
   -1.7519   14.5201   -4.8577 H   0  0  0  0  0  0  0  0  0  0  0  0
    0.8384   14.4224   -1.9608 H   0  0  0  0  0  0  0  0  0  0  0  0
    2.1605   14.3366   -3.1737 H   0  0  0  0  0  0  0  0  0  0  0  0
    1.0310   15.7333   -3.1737 H   0  0  0  0  0  0  0  0  0  0  0  0
   -1.1989   12.3042   -4.0484 H   0  0  0  0  0  0  0  0  0  0  0  0
   -1.7039   13.9303   -2.1138 H   0  0  0  0  0  0  0  0  0  0  0  0
   -2.0294   12.1254   -1.9516 H   0  0  0  0  0  0  0  0  0  0  0  0
   -0.9636   13.3103    0.1456 H   0  0  0  0  0  0  0  0  0  0  0  0
    2.2241   12.2512   -2.0949 H   0  0  0  0  0  0  0  0  0  0  0  0
    1.1571    9.5874   -0.9716 H   0  0  0  0  0  0  0  0  0  0  0  0
    2.5848    9.8131   -2.0768 H   0  0  0  0  0  0  0  0  0  0  0  0
    3.2689    9.4318    0.2698 H   0  0  0  0  0  0  0  0  0  0  0  0
    3.7607   11.0549   -0.3540 H   0  0  0  0  0  0  0  0  0  0  0  0
    2.9236   11.3097    1.8817 H   0  0  0  0  0  0  0  0  0  0  0  0
    0.4760   10.7510    2.0020 H   0  0  0  0  0  0  0  0  0  0  0  0
    3.0342   13.8619    1.4474 H   0  0  0  0  0  0  0  0  0  0  0  0
    3.4799   13.0480   -0.0906 H   0  0  0  0  0  0  0  0  0  0  0  0
    2.2490   14.3563   -0.0906 H   0  0  0  0  0  0  0  0  0  0  0  0
    1.2127   12.6593    2.8563 H   0  0  0  0  0  0  0  0  0  0  0  0
    0.6435   14.0600    1.8864 H   0  0  0  0  0  0  0  0  0  0  0  0
   -0.2934   12.5274    1.8864 H   0  0  0  0  0  0  0  0  0  0  0  0
   -0.4986    9.8825   -1.9329 H   0  0  0  0  0  0  0  0  0  0  0  0
   -1.2959   10.3064   -3.4858 H   0  0  0  0  0  0  0  0  0  0  0  0
    0.1952    9.3046   -3.4858 H   0  0  0  0  0  0  0  0  0  0  0  0
    2.3854   10.6736   -3.9549 H   0  0  0  0  0  0  0  0  0  0  0  0
    0.9029   10.6998   -5.0665 H   0  0  0  0  0  0  0  0  0  0  0  0
    2.7223   13.0172   -4.3561 H   0  0  0  0  0  0  0  0  0  0  0  0
    2.4912   12.2137   -5.9587 H   0  0  0  0  0  0  0  0  0  0  0  0
   -0.8610   12.1405   -5.7642 H   0  0  0  0  0  0  0  0  0  0  0  0
   -0.6202   13.4571   -6.9622 H   0  0  0  0  0  0  0  0  0  0  0  0
    0.4730   12.0318   -6.9622 H   0  0  0  0  0  0  0  0  0  0  0  0
  1  2  1  0
  2  3  1  0
  3  4  1  0
  4  5  1  0
  5  6  1  0
  6  7  1  0
  7  8  1  0
  7  9  1  0
  2 10  1  0
 10 11  1  0
 11 12  1  0
 12 13  1  0
 13 14  1  1
 13 15  1  0
 15 16  1  0
 16 17  1  0
 17 18  2  0
 18 19  1  0
 19 20  1  0
 20 21  1  0
 21 22  1  0
 22 23  1  0
 22 24  1  0
 24 25  1  0
 24 26  1  0
 19 27  1  0
 27 28  1  1
 27 29  1  0
 29 30  1  0
 30 31  1  0
 31 32  1  6
  7  5  1  0
 31 10  1  0
 31 13  1  0
 27 15  1  0
 24 18  1  0
  1 33  1  0
  1 34  1  0
  1 35  1  0
  2 36  1  6
  3 37  1  0
  3 38  1  0
  4 39  1  0
  4 40  1  0
  5 41  1  6
  8 42  1  0
  8 43  1  0
  8 44  1  0
  9 45  1  0
  9 46  1  0
  9 47  1  0
 10 48  1  1
 11 49  1  0
 11 50  1  0
 12 51  1  0
 12 52  1  0
 14 53  1  0
 14 54  1  0
 14 55  1  0
 15 56  1  6
 16 57  1  0
 16 58  1  0
 17 59  1  0
 19 60  1  6
 20 61  1  0
 20 62  1  0
 21 63  1  0
 21 64  1  0
 22 65  1  1
 23 66  1  0
 25 67  1  0
 25 68  1  0
 25 69  1  0
 26 70  1  0
 26 71  1  0
 26 72  1  0
 28 73  1  0
 28 74  1  0
 28 75  1  0
 29 76  1  0
 29 77  1  0
 30 78  1  0
 30 79  1  0
 32 80  1  0
 32 81  1  0
 32 82  1  0
M  END
>  <meeko>  (19) 
{"is_sidechain": [false], "intermolecular_energy": 2.731, "internal_energy": -0.839}

$$$$
EPH_relaxed_0001_pdb2pqr_Repair_27_r2_0001_out
     RDKit          3D

 82 86  0  0  0  0  0  0  0  0999 V2000
  -14.2960    5.3400    0.5540 C   0  0  0  0  0  0  0  0  0  0  0  0
  -13.7800    6.7650    0.3400 C   0  0  2  0  0  0  0  0  0  0  0  0
  -14.9190    7.7540    0.0220 C   0  0  0  0  0  0  0  0  0  0  0  0
  -14.5240    9.2240    0.1920 C   0  0  0  0  0  0  0  0  0  0  0  0
  -15.2480   10.1080   -0.7780 C   0  0  2  0  0  0  0  0  0  0  0  0
  -15.1080    9.7300   -2.1530 O   0  0  0  0  0  0  0  0  0  0  0  0
  -14.5450   10.9990   -1.7840 C   0  0  0  0  0  0  0  0  0  0  0  0
  -13.0520   11.0510   -1.8700 C   0  0  0  0  0  0  0  0  0  0  0  0
  -15.2870   12.1730   -2.3420 C   0  0  0  0  0  0  0  0  0  0  0  0
  -12.7480    6.7810   -0.7810 C   0  0  1  0  0  0  0  0  0  0  0  0
  -13.1900    7.6510   -1.9880 C   0  0  0  0  0  0  0  0  0  0  0  0
  -11.9080    8.3060   -2.5620 C   0  0  0  0  0  0  0  0  0  0  0  0
  -10.7440    7.5420   -1.8870 C   0  0  1  0  0  0  0  0  0  0  0  0
  -10.5940    6.2270   -2.7150 C   0  0  0  0  0  0  0  0  0  0  0  0
   -9.3870    8.3100   -1.7740 C   0  0  2  0  0  0  0  0  0  0  0  0
   -8.7400    8.6930   -3.1160 C   0  0  0  0  0  0  0  0  0  0  0  0
   -7.7980    7.6820   -3.6820 C   0  0  0  0  0  0  0  0  0  0  0  0
   -7.2650    6.6470   -3.0070 C   0  0  0  0  0  0  0  0  0  0  0  0
   -7.5220    6.4690   -1.5050 C   0  0  1  0  0  0  0  0  0  0  0  0
   -6.1850    6.1580   -0.7840 C   0  0  0  0  0  0  0  0  0  0  0  0
   -5.4530    4.9670   -1.3960 C   0  0  0  0  0  0  0  0  0  0  0  0
   -5.1640    5.2060   -2.8750 C   0  0  2  0  0  0  0  0  0  0  0  0
   -4.2200    6.2750   -2.9930 O   0  0  0  0  0  0  0  0  0  0  0  0
   -6.4370    5.5390   -3.7030 C   0  0  0  0  0  0  0  0  0  0  0  0
   -7.3230    4.2740   -3.8260 C   0  0  0  0  0  0  0  0  0  0  0  0
   -5.9880    5.8960   -5.1460 C   0  0  0  0  0  0  0  0  0  0  0  0
   -8.3400    7.6340   -0.7990 C   0  0  1  0  0  0  0  0  0  0  0  0
   -7.3670    8.7630   -0.3390 C   0  0  0  0  0  0  0  0  0  0  0  0
   -9.0150    7.0710    0.5070 C   0  0  0  0  0  0  0  0  0  0  0  0
  -10.4070    6.4310    0.3490 C   0  0  0  0  0  0  0  0  0  0  0  0
  -11.3430    7.3450   -0.4470 C   0  0  2  0  0  0  0  0  0  0  0  0
  -11.5310    8.6670    0.3710 C   0  0  0  0  0  0  0  0  0  0  0  0
  -14.3702    5.1350    1.6322 H   0  0  0  0  0  0  0  0  0  0  0  0
  -15.2888    5.2362    0.0918 H   0  0  0  0  0  0  0  0  0  0  0  0
  -13.5998    4.6247    0.0918 H   0  0  0  0  0  0  0  0  0  0  0  0
  -13.3125    7.0921    1.2805 H   0  0  0  0  0  0  0  0  0  0  0  0
  -15.2339    7.5974   -1.0203 H   0  0  0  0  0  0  0  0  0  0  0  0
  -15.7281    7.5537    0.7398 H   0  0  0  0  0  0  0  0  0  0  0  0
  -14.7686    9.5428    1.2160 H   0  0  0  0  0  0  0  0  0  0  0  0
  -13.4449    9.3138   -0.0015 H   0  0  0  0  0  0  0  0  0  0  0  0
  -16.0382   10.3093   -0.0397 H   0  0  0  0  0  0  0  0  0  0  0  0
  -12.6266   11.0658   -0.8557 H   0  0  0  0  0  0  0  0  0  0  0  0
  -12.6847   10.1651   -2.4088 H   0  0  0  0  0  0  0  0  0  0  0  0
  -12.7472   11.9603   -2.4088 H   0  0  0  0  0  0  0  0  0  0  0  0
  -15.6753   12.7874   -1.5164 H   0  0  0  0  0  0  0  0  0  0  0  0
  -14.6063   12.7770   -2.9599 H   0  0  0  0  0  0  0  0  0  0  0  0
  -16.1247   11.8173   -2.9599 H   0  0  0  0  0  0  0  0  0  0  0  0
  -12.6821    5.7022   -0.9858 H   0  0  0  0  0  0  0  0  0  0  0  0
  -13.6688    7.0220   -2.7529 H   0  0  0  0  0  0  0  0  0  0  0  0
  -13.9183    8.4148   -1.6779 H   0  0  0  0  0  0  0  0  0  0  0  0
  -11.8677    8.1883   -3.6549 H   0  0  0  0  0  0  0  0  0  0  0  0
  -11.8675    9.3874   -2.3644 H   0  0  0  0  0  0  0  0  0  0  0  0
  -10.4964    5.3717   -2.0303 H   0  0  0  0  0  0  0  0  0  0  0  0
  -11.4823    6.0896   -3.3491 H   0  0  0  0  0  0  0  0  0  0  0  0
   -9.6976    6.2932   -3.3491 H   0  0  0  0  0  0  0  0  0  0  0  0
   -9.6908    9.2591   -1.3083 H   0  0  0  0  0  0  0  0  0  0  0  0
   -9.5453    8.8542   -3.8478 H   0  0  0  0  0  0  0  0  0  0  0  0
   -8.1380    9.5921   -2.9178 H   0  0  0  0  0  0  0  0  0  0  0  0
   -7.5161    7.7926   -4.7395 H   0  0  0  0  0  0  0  0  0  0  0  0
   -8.2036    5.6106   -1.4128 H   0  0  0  0  0  0  0  0  0  0  0  0
   -5.5349    7.0429   -0.8495 H   0  0  0  0  0  0  0  0  0  0  0  0
   -6.4200    5.9046    0.2603 H   0  0  0  0  0  0  0  0  0  0  0  0
   -4.5025    4.8161   -0.8633 H   0  0  0  0  0  0  0  0  0  0  0  0
   -6.0918    4.0764   -1.3025 H   0  0  0  0  0  0  0  0  0  0  0  0
   -4.7586    4.2702   -3.2871 H   0  0  0  0  0  0  0  0  0  0  0  0
   -3.9040    6.2880   -3.9130 H   0  0  0  0  0  0  0  0  0  0  0  0
   -7.5799    3.9072   -2.8213 H   0  0  0  0  0  0  0  0  0  0  0  0
   -8.2447    4.5236   -4.3720 H   0  0  0  0  0  0  0  0  0  0  0  0
   -6.7734    3.4931   -4.3720 H   0  0  0  0  0  0  0  0  0  0  0  0
   -5.1276    6.5801   -5.1036 H   0  0  0  0  0  0  0  0  0  0  0  0
   -5.7002    4.9774   -5.6783 H   0  0  0  0  0  0  0  0  0  0  0  0
   -6.8181    6.3834   -5.6783 H   0  0  0  0  0  0  0  0  0  0  0  0
   -7.3379    8.7967    0.7601 H   0  0  0  0  0  0  0  0  0  0  0  0
   -6.3581    8.5579   -0.7263 H   0  0  0  0  0  0  0  0  0  0  0  0
   -7.7188    9.7306   -0.7263 H   0  0  0  0  0  0  0  0  0  0  0  0
   -8.3433    6.3073    0.9260 H   0  0  0  0  0  0  0  0  0  0  0  0
   -9.1733    7.9490    1.1505 H   0  0  0  0  0  0  0  0  0  0  0  0
  -10.3043    5.4722   -0.1803 H   0  0  0  0  0  0  0  0  0  0  0  0
  -10.8367    6.2743    1.3494 H   0  0  0  0  0  0  0  0  0  0  0  0
  -11.4987    8.4402    1.4469 H   0  0  0  0  0  0  0  0  0  0  0  0
  -10.7240    9.3712    0.1204 H   0  0  0  0  0  0  0  0  0  0  0  0
  -12.5024    9.1183    0.1204 H   0  0  0  0  0  0  0  0  0  0  0  0
  1  2  1  0
  2  3  1  0
  3  4  1  0
  4  5  1  0
  5  6  1  0
  6  7  1  0
  7  8  1  0
  7  9  1  0
  2 10  1  0
 10 11  1  0
 11 12  1  0
 12 13  1  0
 13 14  1  6
 13 15  1  0
 15 16  1  0
 16 17  1  0
 17 18  2  0
 18 19  1  0
 19 20  1  0
 20 21  1  0
 21 22  1  0
 22 23  1  0
 22 24  1  0
 24 25  1  0
 24 26  1  0
 19 27  1  0
 27 28  1  1
 27 29  1  0
 29 30  1  0
 30 31  1  0
 31 32  1  1
  7  5  1  0
 31 10  1  0
 31 13  1  0
 27 15  1  0
 24 18  1  0
  1 33  1  0
  1 34  1  0
  1 35  1  0
  2 36  1  1
  3 37  1  0
  3 38  1  0
  4 39  1  0
  4 40  1  0
  5 41  1  1
  8 42  1  0
  8 43  1  0
  8 44  1  0
  9 45  1  0
  9 46  1  0
  9 47  1  0
 10 48  1  6
 11 49  1  0
 11 50  1  0
 12 51  1  0
 12 52  1  0
 14 53  1  0
 14 54  1  0
 14 55  1  0
 15 56  1  1
 16 57  1  0
 16 58  1  0
 17 59  1  0
 19 60  1  6
 20 61  1  0
 20 62  1  0
 21 63  1  0
 21 64  1  0
 22 65  1  6
 23 66  1  0
 25 67  1  0
 25 68  1  0
 25 69  1  0
 26 70  1  0
 26 71  1  0
 26 72  1  0
 28 73  1  0
 28 74  1  0
 28 75  1  0
 29 76  1  0
 29 77  1  0
 30 78  1  0
 30 79  1  0
 32 80  1  0
 32 81  1  0
 32 82  1  0
M  END
>  <meeko>  (20) 
{"is_sidechain": [false], "intermolecular_energy": 2.731, "internal_energy": -0.839}

$$$$
