EPH_relaxed_0001_pdb2pqr_Repair_341_r2_0001_out
     RDKit          3D

 82 86  0  0  0  0  0  0  0  0999 V2000
   -5.1060    5.9270   -1.7960 C   0  0  0  0  0  0  0  0  0  0  0  0
   -5.4380    7.4220   -1.8200 C   0  0  2  0  0  0  0  0  0  0  0  0
   -5.2290    8.0850   -0.4440 C   0  0  0  0  0  0  0  0  0  0  0  0
   -4.1690    9.1910   -0.4490 C   0  0  0  0  0  0  0  0  0  0  0  0
   -2.8170    8.6600   -0.8180 C   0  0  2  0  0  0  0  0  0  0  0  0
   -1.7770    8.9670    0.1210 O   0  0  0  0  0  0  0  0  0  0  0  0
   -1.6430    9.5480   -1.1870 C   0  0  0  0  0  0  0  0  0  0  0  0
   -1.7670   11.0390   -1.2070 C   0  0  0  0  0  0  0  0  0  0  0  0
   -0.5280    8.9600   -1.9960 C   0  0  0  0  0  0  0  0  0  0  0  0
   -6.8750    7.6270   -2.2850 C   0  0  1  0  0  0  0  0  0  0  0  0
   -7.1740    6.9190   -3.6330 C   0  0  0  0  0  0  0  0  0  0  0  0
   -8.6430    6.4280   -3.5640 C   0  0  0  0  0  0  0  0  0  0  0  0
   -9.2380    7.1500   -2.3330 C   0  0  1  0  0  0  0  0  0  0  0  0
   -9.6070    8.5780   -2.8440 C   0  0  0  0  0  0  0  0  0  0  0  0
  -10.4550    6.4510   -1.6440 C   0  0  2  0  0  0  0  0  0  0  0  0
  -11.7080    6.3040   -2.5250 C   0  0  0  0  0  0  0  0  0  0  0  0
  -12.6760    7.4380   -2.4510 C   0  0  0  0  0  0  0  0  0  0  0  0
  -12.6920    8.3930   -1.5020 C   0  0  0  0  0  0  0  0  0  0  0  0
  -11.7260    8.3360   -0.3120 C   0  0  1  0  0  0  0  0  0  0  0  0
  -12.5050    8.6140    1.0010 C   0  0  0  0  0  0  0  0  0  0  0  0
  -13.2910    9.9200    0.9490 C   0  0  0  0  0  0  0  0  0  0  0  0
  -14.2810    9.9160   -0.2120 C   0  0  2  0  0  0  0  0  0  0  0  0
  -15.2860    8.9300    0.0430 O   0  0  0  0  0  0  0  0  0  0  0  0
  -13.6120    9.6360   -1.5870 C   0  0  0  0  0  0  0  0  0  0  0  0
  -12.7490   10.8520   -2.0030 C   0  0  0  0  0  0  0  0  0  0  0  0
  -14.7370    9.5180   -2.6510 C   0  0  0  0  0  0  0  0  0  0  0  0
  -10.8170    7.0360   -0.2180 C   0  0  1  0  0  0  0  0  0  0  0  0
  -11.5770    5.9090    0.5450 C   0  0  0  0  0  0  0  0  0  0  0  0
   -9.5360    7.3640    0.6360 C   0  0  0  0  0  0  0  0  0  0  0  0
   -8.3240    7.9410   -0.1220 C   0  0  0  0  0  0  0  0  0  0  0  0
   -8.0030    7.1010   -1.3620 C   0  0  2  0  0  0  0  0  0  0  0  0
   -7.6060    5.6650   -0.8770 C   0  0  0  0  0  0  0  0  0  0  0  0
   -5.0300    5.5850   -0.7533 H   0  0  0  0  0  0  0  0  0  0  0  0
   -5.9015    5.3665   -2.3087 H   0  0  0  0  0  0  0  0  0  0  0  0
   -4.1480    5.7559   -2.3087 H   0  0  0  0  0  0  0  0  0  0  0  0
   -4.7463    7.9041   -2.5265 H   0  0  0  0  0  0  0  0  0  0  0  0
   -6.1852    8.5216   -0.1199 H   0  0  0  0  0  0  0  0  0  0  0  0
   -4.8728    7.3009    0.2403 H   0  0  0  0  0  0  0  0  0  0  0  0
   -4.4608    9.9614   -1.1780 H   0  0  0  0  0  0  0  0  0  0  0  0
   -4.1074    9.6121    0.5654 H   0  0  0  0  0  0  0  0  0  0  0  0
   -3.2678    7.7883   -1.3150 H   0  0  0  0  0  0  0  0  0  0  0  0
   -1.7985   11.4182   -0.1749 H   0  0  0  0  0  0  0  0  0  0  0  0
   -0.9018   11.4719   -1.7304 H   0  0  0  0  0  0  0  0  0  0  0  0
   -2.6919   11.3230   -1.7304 H   0  0  0  0  0  0  0  0  0  0  0  0
    0.2404    8.5548   -1.3212 H   0  0  0  0  0  0  0  0  0  0  0  0
   -0.9217    8.1523   -2.6304 H   0  0  0  0  0  0  0  0  0  0  0  0
   -0.0838    9.7411   -2.6304 H   0  0  0  0  0  0  0  0  0  0  0  0
   -6.9011    8.7260   -2.3228 H   0  0  0  0  0  0  0  0  0  0  0  0
   -7.0493    7.6248   -4.4674 H   0  0  0  0  0  0  0  0  0  0  0  0
   -6.4840    6.0786   -3.7994 H   0  0  0  0  0  0  0  0  0  0  0  0
   -9.1885    6.7053   -4.4781 H   0  0  0  0  0  0  0  0  0  0  0  0
   -8.7136    5.3335   -3.4802 H   0  0  0  0  0  0  0  0  0  0  0  0
   -9.7786    9.2422   -1.9841 H   0  0  0  0  0  0  0  0  0  0  0  0
   -8.7816    8.9738   -3.4540 H   0  0  0  0  0  0  0  0  0  0  0  0
  -10.5208    8.5244   -3.4540 H   0  0  0  0  0  0  0  0  0  0  0  0
  -10.0801    5.4292   -1.4845 H   0  0  0  0  0  0  0  0  0  0  0  0
  -11.3791    6.2055   -3.5700 H   0  0  0  0  0  0  0  0  0  0  0  0
  -12.2441    5.4211   -2.1468 H   0  0  0  0  0  0  0  0  0  0  0  0
  -13.4413    7.4986   -3.2388 H   0  0  0  0  0  0  0  0  0  0  0  0
  -10.9859    9.1316   -0.4831 H   0  0  0  0  0  0  0  0  0  0  0  0
  -13.2078    7.7861    1.1761 H   0  0  0  0  0  0  0  0  0  0  0  0
  -11.7692    8.6991    1.8143 H   0  0  0  0  0  0  0  0  0  0  0  0
  -13.8430   10.0455    1.8921 H   0  0  0  0  0  0  0  0  0  0  0  0
  -12.5834   10.7495    0.8036 H   0  0  0  0  0  0  0  0  0  0  0  0
  -14.7189   10.9231   -0.2755 H   0  0  0  0  0  0  0  0  0  0  0  0
  -16.0610    9.1510   -0.5020 H   0  0  0  0  0  0  0  0  0  0  0  0
  -12.3833   11.3673   -1.1026 H   0  0  0  0  0  0  0  0  0  0  0  0
  -11.8928   10.5066   -2.6010 H   0  0  0  0  0  0  0  0  0  0  0  0
  -13.3577   11.5462   -2.6010 H   0  0  0  0  0  0  0  0  0  0  0  0
  -15.7093    9.4160   -2.1468 H   0  0  0  0  0  0  0  0  0  0  0  0
  -14.7430   10.4204   -3.2799 H   0  0  0  0  0  0  0  0  0  0  0  0
  -14.5556    8.6340   -3.2799 H   0  0  0  0  0  0  0  0  0  0  0  0
  -11.4719    6.0648    1.6288 H   0  0  0  0  0  0  0  0  0  0  0  0
  -12.6423    5.9356    0.2723 H   0  0  0  0  0  0  0  0  0  0  0  0
  -11.1530    4.9313    0.2723 H   0  0  0  0  0  0  0  0  0  0  0  0
   -9.8267    8.0953    1.4045 H   0  0  0  0  0  0  0  0  0  0  0  0
   -9.1953    6.3942    1.0277 H   0  0  0  0  0  0  0  0  0  0  0  0
   -8.5517    8.9710   -0.4340 H   0  0  0  0  0  0  0  0  0  0  0  0
   -7.4515    7.9258    0.5477 H   0  0  0  0  0  0  0  0  0  0  0  0
   -7.5986    5.6384    0.2227 H   0  0  0  0  0  0  0  0  0  0  0  0
   -8.3360    4.9349   -1.2566 H   0  0  0  0  0  0  0  0  0  0  0  0
   -6.6047    5.4136   -1.2566 H   0  0  0  0  0  0  0  0  0  0  0  0
  1  2  1  0
  2  3  1  0
  3  4  1  0
  4  5  1  0
  5  6  1  0
  6  7  1  0
  7  8  1  0
  7  9  1  0
  2 10  1  0
 10 11  1  0
 11 12  1  0
 12 13  1  0
 13 14  1  6
 13 15  1  0
 15 16  1  0
 16 17  1  0
 17 18  2  0
 18 19  1  0
 19 20  1  0
 20 21  1  0
 21 22  1  0
 22 23  1  0
 22 24  1  0
 24 25  1  0
 24 26  1  0
 19 27  1  0
 27 28  1  1
 27 29  1  0
 29 30  1  0
 30 31  1  0
 31 32  1  1
  7  5  1  0
 31 10  1  0
 31 13  1  0
 27 15  1  0
 24 18  1  0
  1 33  1  0
  1 34  1  0
  1 35  1  0
  2 36  1  6
  3 37  1  0
  3 38  1  0
  4 39  1  0
  4 40  1  0
  5 41  1  6
  8 42  1  0
  8 43  1  0
  8 44  1  0
  9 45  1  0
  9 46  1  0
  9 47  1  0
 10 48  1  6
 11 49  1  0
 11 50  1  0
 12 51  1  0
 12 52  1  0
 14 53  1  0
 14 54  1  0
 14 55  1  0
 15 56  1  1
 16 57  1  0
 16 58  1  0
 17 59  1  0
 19 60  1  6
 20 61  1  0
 20 62  1  0
 21 63  1  0
 21 64  1  0
 22 65  1  6
 23 66  1  0
 25 67  1  0
 25 68  1  0
 25 69  1  0
 26 70  1  0
 26 71  1  0
 26 72  1  0
 28 73  1  0
 28 74  1  0
 28 75  1  0
 29 76  1  0
 29 77  1  0
 30 78  1  0
 30 79  1  0
 32 80  1  0
 32 81  1  0
 32 82  1  0
M  END
>  <meeko>  (1) 
{"is_sidechain": [false], "intermolecular_energy": 2.731, "internal_energy": -0.839}

$$$$
EPH_relaxed_0001_pdb2pqr_Repair_341_r2_0001_out
     RDKit          3D

 82 86  0  0  0  0  0  0  0  0999 V2000
   -0.8930   16.6290   -5.8230 C   0  0  0  0  0  0  0  0  0  0  0  0
    0.1560   15.9090   -6.6750 C   0  0  2  0  0  0  0  0  0  0  0  0
   -0.2970   15.7450   -8.1390 C   0  0  0  0  0  0  0  0  0  0  0  0
    0.3910   16.7100   -9.1080 C   0  0  0  0  0  0  0  0  0  0  0  0
    1.7890   16.2730   -9.4260 C   0  0  2  0  0  0  0  0  0  0  0  0
    2.3010   16.7630  -10.6730 O   0  0  0  0  0  0  0  0  0  0  0  0
    2.1340   15.3400  -10.5720 C   0  0  0  0  0  0  0  0  0  0  0  0
    1.0750   14.7860  -11.4730 C   0  0  0  0  0  0  0  0  0  0  0  0
    3.4250   14.5840  -10.5160 C   0  0  0  0  0  0  0  0  0  0  0  0
    0.4700   14.5450   -6.0700 C   0  0  1  0  0  0  0  0  0  0  0  0
    1.6400   13.8260   -6.7920 C   0  0  0  0  0  0  0  0  0  0  0  0
    2.4150   13.0340   -5.7080 C   0  0  0  0  0  0  0  0  0  0  0  0
    1.4850   13.0510   -4.4730 C   0  0  1  0  0  0  0  0  0  0  0  0
    0.4460   11.9170   -4.7370 C   0  0  0  0  0  0  0  0  0  0  0  0
    2.1800   12.8840   -3.0820 C   0  0  2  0  0  0  0  0  0  0  0  0
    2.9110   11.5460   -2.8740 C   0  0  0  0  0  0  0  0  0  0  0  0
    2.0850   10.4550   -2.2780 C   0  0  0  0  0  0  0  0  0  0  0  0
    0.8990   10.6190   -1.6620 C   0  0  0  0  0  0  0  0  0  0  0  0
    0.3190   12.0200   -1.4300 C   0  0  1  0  0  0  0  0  0  0  0  0
   -0.1900   12.1350    0.0300 C   0  0  0  0  0  0  0  0  0  0  0  0
   -1.1750   11.0280    0.3960 C   0  0  0  0  0  0  0  0  0  0  0  0
   -0.5420    9.6520    0.2080 C   0  0  2  0  0  0  0  0  0  0  0  0
    0.5100    9.4930    1.1650 O   0  0  0  0  0  0  0  0  0  0  0  0
    0.0160    9.4240   -1.2250 C   0  0  0  0  0  0  0  0  0  0  0  0
   -1.1580    9.2950   -2.2270 C   0  0  0  0  0  0  0  0  0  0  0  0
    0.7510    8.0570   -1.2390 C   0  0  0  0  0  0  0  0  0  0  0  0
    1.2540   13.2350   -1.8480 C   0  0  1  0  0  0  0  0  0  0  0  0
    2.2050   13.6050   -0.6690 C   0  0  0  0  0  0  0  0  0  0  0  0
    0.3600   14.5040   -2.1130 C   0  0  0  0  0  0  0  0  0  0  0  0
   -0.1990   14.6760   -3.5380 C   0  0  0  0  0  0  0  0  0  0  0  0
    0.9070   14.5090   -4.5840 C   0  0  2  0  0  0  0  0  0  0  0  0
    1.9570   15.6500   -4.3570 C   0  0  0  0  0  0  0  0  0  0  0  0
   -0.6684   16.4749   -4.7573 H   0  0  0  0  0  0  0  0  0  0  0  0
   -0.8738   17.7052   -6.0498 H   0  0  0  0  0  0  0  0  0  0  0  0
   -1.8903   16.2242   -6.0498 H   0  0  0  0  0  0  0  0  0  0  0  0
    1.0629   16.5316   -6.6789 H   0  0  0  0  0  0  0  0  0  0  0  0
   -0.0753   14.7158   -8.4579 H   0  0  0  0  0  0  0  0  0  0  0  0
   -1.3730   15.9714   -8.1698 H   0  0  0  0  0  0  0  0  0  0  0  0
   -0.1900   16.7530  -10.0410 H   0  0  0  0  0  0  0  0  0  0  0  0
    0.4413   17.6991   -8.6292 H   0  0  0  0  0  0  0  0  0  0  0  0
    2.0524   16.2591   -8.3581 H   0  0  0  0  0  0  0  0  0  0  0  0
    0.2624   14.3609  -10.8656 H   0  0  0  0  0  0  0  0  0  0  0  0
    0.6758   15.5908  -12.1078 H   0  0  0  0  0  0  0  0  0  0  0  0
    1.5085   13.9992  -12.1078 H   0  0  0  0  0  0  0  0  0  0  0  0
    3.7077   14.4184   -9.4659 H   0  0  0  0  0  0  0  0  0  0  0  0
    3.3041   13.6140  -11.0205 H   0  0  0  0  0  0  0  0  0  0  0  0
    4.2118   15.1641  -11.0205 H   0  0  0  0  0  0  0  0  0  0  0  0
   -0.5119   14.0626   -6.1847 H   0  0  0  0  0  0  0  0  0  0  0  0
    1.2483   13.1384   -7.5561 H   0  0  0  0  0  0  0  0  0  0  0  0
    2.2964   14.5495   -7.2976 H   0  0  0  0  0  0  0  0  0  0  0  0
    2.6011   12.0019   -6.0398 H   0  0  0  0  0  0  0  0  0  0  0  0
    3.4003   13.4740   -5.4944 H   0  0  0  0  0  0  0  0  0  0  0  0
    0.0833   11.5212   -3.7769 H   0  0  0  0  0  0  0  0  0  0  0  0
   -0.4011   12.3220   -5.3101 H   0  0  0  0  0  0  0  0  0  0  0  0
    0.9233   11.1085   -5.3101 H   0  0  0  0  0  0  0  0  0  0  0  0
    2.9671   13.6516   -3.1184 H   0  0  0  0  0  0  0  0  0  0  0  0
    3.2743   11.2012   -3.8533 H   0  0  0  0  0  0  0  0  0  0  0  0
    3.7160   11.7477   -2.1520 H   0  0  0  0  0  0  0  0  0  0  0  0
    2.4785    9.4302   -2.3479 H   0  0  0  0  0  0  0  0  0  0  0  0
   -0.5255   12.1187   -2.1279 H   0  0  0  0  0  0  0  0  0  0  0  0
    0.6730   12.0779    0.7097 H   0  0  0  0  0  0  0  0  0  0  0  0
   -0.7175   13.0956    0.1247 H   0  0  0  0  0  0  0  0  0  0  0  0
   -1.4748   11.1459    1.4478 H   0  0  0  0  0  0  0  0  0  0  0  0
   -2.0515   11.1049   -0.2642 H   0  0  0  0  0  0  0  0  0  0  0  0
   -1.3328    8.9025    0.3592 H   0  0  0  0  0  0  0  0  0  0  0  0
    1.1540   10.2060    1.0150 H   0  0  0  0  0  0  0  0  0  0  0  0
   -2.1028    9.1912   -1.6734 H   0  0  0  0  0  0  0  0  0  0  0  0
   -1.2006   10.1939   -2.8596 H   0  0  0  0  0  0  0  0  0  0  0  0
   -1.0044    8.4083   -2.8596 H   0  0  0  0  0  0  0  0  0  0  0  0
    0.9291    7.7258   -0.2053 H   0  0  0  0  0  0  0  0  0  0  0  0
    0.1314    7.3129   -1.7608 H   0  0  0  0  0  0  0  0  0  0  0  0
    1.7135    8.1635   -1.7608 H   0  0  0  0  0  0  0  0  0  0  0  0
    1.6978   13.4077    0.2869 H   0  0  0  0  0  0  0  0  0  0  0  0
    3.1197   12.9971   -0.7311 H   0  0  0  0  0  0  0  0  0  0  0  0
    2.4684   14.6712   -0.7311 H   0  0  0  0  0  0  0  0  0  0  0  0
   -0.4958   14.4578   -1.4234 H   0  0  0  0  0  0  0  0  0  0  0  0
    1.0293   15.3637   -1.9613 H   0  0  0  0  0  0  0  0  0  0  0  0
   -0.9774   13.9187   -3.7131 H   0  0  0  0  0  0  0  0  0  0  0  0
   -0.6193   15.6883   -3.6303 H   0  0  0  0  0  0  0  0  0  0  0  0
    2.1009   15.8064   -3.2777 H   0  0  0  0  0  0  0  0  0  0  0  0
    2.9144   15.3641   -4.8170 H   0  0  0  0  0  0  0  0  0  0  0  0
    1.5926   16.5804   -4.8170 H   0  0  0  0  0  0  0  0  0  0  0  0
  1  2  1  0
  2  3  1  0
  3  4  1  0
  4  5  1  0
  5  6  1  0
  6  7  1  0
  7  8  1  0
  7  9  1  0
  2 10  1  0
 10 11  1  0
 11 12  1  0
 12 13  1  0
 13 14  1  6
 13 15  1  0
 15 16  1  0
 16 17  1  0
 17 18  2  0
 18 19  1  0
 19 20  1  0
 20 21  1  0
 21 22  1  0
 22 23  1  0
 22 24  1  0
 24 25  1  0
 24 26  1  0
 19 27  1  0
 27 28  1  1
 27 29  1  0
 29 30  1  0
 30 31  1  0
 31 32  1  6
  7  5  1  0
 31 10  1  0
 31 13  1  0
 27 15  1  0
 24 18  1  0
  1 33  1  0
  1 34  1  0
  1 35  1  0
  2 36  1  6
  3 37  1  0
  3 38  1  0
  4 39  1  0
  4 40  1  0
  5 41  1  1
  8 42  1  0
  8 43  1  0
  8 44  1  0
  9 45  1  0
  9 46  1  0
  9 47  1  0
 10 48  1  1
 11 49  1  0
 11 50  1  0
 12 51  1  0
 12 52  1  0
 14 53  1  0
 14 54  1  0
 14 55  1  0
 15 56  1  6
 16 57  1  0
 16 58  1  0
 17 59  1  0
 19 60  1  6
 20 61  1  0
 20 62  1  0
 21 63  1  0
 21 64  1  0
 22 65  1  1
 23 66  1  0
 25 67  1  0
 25 68  1  0
 25 69  1  0
 26 70  1  0
 26 71  1  0
 26 72  1  0
 28 73  1  0
 28 74  1  0
 28 75  1  0
 29 76  1  0
 29 77  1  0
 30 78  1  0
 30 79  1  0
 32 80  1  0
 32 81  1  0
 32 82  1  0
M  END
>  <meeko>  (2) 
{"is_sidechain": [false], "intermolecular_energy": 2.731, "internal_energy": -0.839}

$$$$
EPH_relaxed_0001_pdb2pqr_Repair_341_r2_0001_out
     RDKit          3D

 82 86  0  0  0  0  0  0  0  0999 V2000
    4.2600   16.4600    0.4770 C   0  0  0  0  0  0  0  0  0  0  0  0
    2.9950   17.1380   -0.0560 C   0  0  2  0  0  0  0  0  0  0  0  0
    2.6040   18.3750    0.7770 C   0  0  0  0  0  0  0  0  0  0  0  0
    3.7890   19.2770    1.1340 C   0  0  0  0  0  0  0  0  0  0  0  0
    4.2460   19.0600    2.5450 C   0  0  2  0  0  0  0  0  0  0  0  0
    4.8790   20.1940    3.1500 O   0  0  0  0  0  0  0  0  0  0  0  0
    5.7060   19.0360    2.9570 C   0  0  0  0  0  0  0  0  0  0  0  0
    6.8020   19.2310    1.9570 C   0  0  0  0  0  0  0  0  0  0  0  0
    6.0790   18.3420    4.2290 C   0  0  0  0  0  0  0  0  0  0  0  0
    1.8430   16.1410   -0.0820 C   0  0  1  0  0  0  0  0  0  0  0  0
    0.4720   16.8200   -0.3430 C   0  0  0  0  0  0  0  0  0  0  0  0
   -0.3660   15.8250   -1.1880 C   0  0  0  0  0  0  0  0  0  0  0  0
    0.4120   14.4910   -1.1030 C   0  0  1  0  0  0  0  0  0  0  0  0
   -0.0030   13.8710    0.2680 C   0  0  0  0  0  0  0  0  0  0  0  0
    0.1910   13.4870   -2.2810 C   0  0  2  0  0  0  0  0  0  0  0  0
   -1.2500   12.9710   -2.4370 C   0  0  0  0  0  0  0  0  0  0  0  0
   -1.5650   11.7210   -1.6840 C   0  0  0  0  0  0  0  0  0  0  0  0
   -0.6600   10.8840   -1.1440 C   0  0  0  0  0  0  0  0  0  0  0  0
    0.8440   11.1100   -1.3510 C   0  0  1  0  0  0  0  0  0  0  0  0
    1.5190    9.7700   -1.7430 C   0  0  0  0  0  0  0  0  0  0  0  0
    1.2290    8.6540   -0.7440 C   0  0  0  0  0  0  0  0  0  0  0  0
   -0.2730    8.4190   -0.6090 C   0  0  2  0  0  0  0  0  0  0  0  0
   -0.7710    7.9000   -1.8460 O   0  0  0  0  0  0  0  0  0  0  0  0
   -1.0620    9.7030   -0.2260 C   0  0  0  0  0  0  0  0  0  0  0  0
   -0.7400   10.0940    1.2370 C   0  0  0  0  0  0  0  0  0  0  0  0
   -2.5760    9.3620   -0.2620 C   0  0  0  0  0  0  0  0  0  0  0  0
    1.2380   12.3010   -2.3270 C   0  0  1  0  0  0  0  0  0  0  0  0
    1.2710   11.7920   -3.8000 C   0  0  0  0  0  0  0  0  0  0  0  0
    2.6990   12.7790   -1.9890 C   0  0  0  0  0  0  0  0  0  0  0  0
    2.8430   13.8600   -0.9000 C   0  0  0  0  0  0  0  0  0  0  0  0
    1.8880   15.0290   -1.1590 C   0  0  2  0  0  0  0  0  0  0  0  0
    2.2950   15.6870   -2.5220 C   0  0  0  0  0  0  0  0  0  0  0  0
    4.2447   16.4682    1.5769 H   0  0  0  0  0  0  0  0  0  0  0  0
    4.2978   15.4207    0.1185 H   0  0  0  0  0  0  0  0  0  0  0  0
    5.1464   17.0040    0.1185 H   0  0  0  0  0  0  0  0  0  0  0  0
    3.2101   17.4837   -1.0779 H   0  0  0  0  0  0  0  0  0  0  0  0
    1.8785   18.9671    0.1998 H   0  0  0  0  0  0  0  0  0  0  0  0
    2.1850   18.0050    1.7244 H   0  0  0  0  0  0  0  0  0  0  0  0
    4.6230   19.0567    0.4514 H   0  0  0  0  0  0  0  0  0  0  0  0
    3.4649   20.3236    1.0358 H   0  0  0  0  0  0  0  0  0  0  0  0
    3.4149   18.3641    2.7321 H   0  0  0  0  0  0  0  0  0  0  0  0
    7.7529   19.4002    2.4835 H   0  0  0  0  0  0  0  0  0  0  0  0
    6.8867   18.3338    1.3262 H   0  0  0  0  0  0  0  0  0  0  0  0
    6.5721   20.1023    1.3262 H   0  0  0  0  0  0  0  0  0  0  0  0
    5.7530   18.9485    5.0868 H   0  0  0  0  0  0  0  0  0  0  0  0
    5.5880   17.3584    4.2677 H   0  0  0  0  0  0  0  0  0  0  0  0
    7.1702   18.2088    4.2677 H   0  0  0  0  0  0  0  0  0  0  0  0
    1.9592   15.6992    0.9186 H   0  0  0  0  0  0  0  0  0  0  0  0
   -0.0353   17.0282    0.6106 H   0  0  0  0  0  0  0  0  0  0  0  0
    0.5990   17.7769   -0.8704 H   0  0  0  0  0  0  0  0  0  0  0  0
   -1.3763   15.7130   -0.7675 H   0  0  0  0  0  0  0  0  0  0  0  0
   -0.4979   16.1661   -2.2254 H   0  0  0  0  0  0  0  0  0  0  0  0
    0.4062   14.4824    1.0858 H   0  0  0  0  0  0  0  0  0  0  0  0
   -1.1002   13.8464    0.3422 H   0  0  0  0  0  0  0  0  0  0  0  0
    0.3925   12.8473    0.3422 H   0  0  0  0  0  0  0  0  0  0  0  0
    0.3806   14.1145   -3.1643 H   0  0  0  0  0  0  0  0  0  0  0  0
   -1.9330   13.7594   -2.0877 H   0  0  0  0  0  0  0  0  0  0  0  0
   -1.3708   12.7232   -3.5019 H   0  0  0  0  0  0  0  0  0  0  0  0
   -2.6269   11.4621   -1.5600 H   0  0  0  0  0  0  0  0  0  0  0  0
    1.2362   11.4563   -0.3834 H   0  0  0  0  0  0  0  0  0  0  0  0
    1.1466    9.4637   -2.7317 H   0  0  0  0  0  0  0  0  0  0  0  0
    2.6066    9.9346   -1.7529 H   0  0  0  0  0  0  0  0  0  0  0  0
    1.7086    7.7268   -1.0909 H   0  0  0  0  0  0  0  0  0  0  0  0
    1.6276    8.9495    0.2377 H   0  0  0  0  0  0  0  0  0  0  0  0
   -0.4225    7.7022    0.2119 H   0  0  0  0  0  0  0  0  0  0  0  0
   -1.7270    8.0780   -1.8760 H   0  0  0  0  0  0  0  0  0  0  0  0
   -1.2867    9.4301    1.9228 H   0  0  0  0  0  0  0  0  0  0  0  0
    0.3411    9.9939    1.4138 H   0  0  0  0  0  0  0  0  0  0  0  0
   -1.0455   11.1358    1.4138 H   0  0  0  0  0  0  0  0  0  0  0  0
   -2.9571    9.2762    0.7663 H   0  0  0  0  0  0  0  0  0  0  0  0
   -3.1192   10.1603   -0.7889 H   0  0  0  0  0  0  0  0  0  0  0  0
   -2.7245    8.4079   -0.7889 H   0  0  0  0  0  0  0  0  0  0  0  0
    1.3422   10.6943   -3.8071 H   0  0  0  0  0  0  0  0  0  0  0  0
    0.3508   12.1031   -4.3162 H   0  0  0  0  0  0  0  0  0  0  0  0
    2.1433   12.2194   -4.3162 H   0  0  0  0  0  0  0  0  0  0  0  0
    3.2696   11.8978   -1.6604 H   0  0  0  0  0  0  0  0  0  0  0  0
    3.0681   13.2500   -2.9120 H   0  0  0  0  0  0  0  0  0  0  0  0
    2.6119   13.4168    0.0799 H   0  0  0  0  0  0  0  0  0  0  0  0
    3.8752   14.2398   -0.9168 H   0  0  0  0  0  0  0  0  0  0  0  0
    2.8647   16.6080   -2.3289 H   0  0  0  0  0  0  0  0  0  0  0  0
    2.9168   14.9850   -3.0969 H   0  0  0  0  0  0  0  0  0  0  0  0
    1.3892   15.9299   -3.0969 H   0  0  0  0  0  0  0  0  0  0  0  0
  1  2  1  0
  2  3  1  0
  3  4  1  0
  4  5  1  0
  5  6  1  0
  6  7  1  0
  7  8  1  0
  7  9  1  0
  2 10  1  0
 10 11  1  0
 11 12  1  0
 12 13  1  0
 13 14  1  1
 13 15  1  0
 15 16  1  0
 16 17  1  0
 17 18  2  0
 18 19  1  0
 19 20  1  0
 20 21  1  0
 21 22  1  0
 22 23  1  0
 22 24  1  0
 24 25  1  0
 24 26  1  0
 19 27  1  0
 27 28  1  6
 27 29  1  0
 29 30  1  0
 30 31  1  0
 31 32  1  6
  7  5  1  0
 31 10  1  0
 31 13  1  0
 27 15  1  0
 24 18  1  0
  1 33  1  0
  1 34  1  0
  1 35  1  0
  2 36  1  6
  3 37  1  0
  3 38  1  0
  4 39  1  0
  4 40  1  0
  5 41  1  1
  8 42  1  0
  8 43  1  0
  8 44  1  0
  9 45  1  0
  9 46  1  0
  9 47  1  0
 10 48  1  1
 11 49  1  0
 11 50  1  0
 12 51  1  0
 12 52  1  0
 14 53  1  0
 14 54  1  0
 14 55  1  0
 15 56  1  6
 16 57  1  0
 16 58  1  0
 17 59  1  0
 19 60  1  1
 20 61  1  0
 20 62  1  0
 21 63  1  0
 21 64  1  0
 22 65  1  1
 23 66  1  0
 25 67  1  0
 25 68  1  0
 25 69  1  0
 26 70  1  0
 26 71  1  0
 26 72  1  0
 28 73  1  0
 28 74  1  0
 28 75  1  0
 29 76  1  0
 29 77  1  0
 30 78  1  0
 30 79  1  0
 32 80  1  0
 32 81  1  0
 32 82  1  0
M  END
>  <meeko>  (3) 
{"is_sidechain": [false], "intermolecular_energy": 2.731, "internal_energy": -0.839}

$$$$
EPH_relaxed_0001_pdb2pqr_Repair_341_r2_0001_out
     RDKit          3D

 82 86  0  0  0  0  0  0  0  0999 V2000
    0.9180   18.1790    0.2470 C   0  0  0  0  0  0  0  0  0  0  0  0
    1.6880   16.8610    0.3750 C   0  0  2  0  0  0  0  0  0  0  0  0
    3.1480   16.9930   -0.1040 C   0  0  0  0  0  0  0  0  0  0  0  0
    3.8390   18.2720    0.3740 C   0  0  0  0  0  0  0  0  0  0  0  0
    4.2380   18.1810    1.8160 C   0  0  2  0  0  0  0  0  0  0  0  0
    3.9260   19.3420    2.5980 O   0  0  0  0  0  0  0  0  0  0  0  0
    5.3220   19.0410    2.4400 C   0  0  0  0  0  0  0  0  0  0  0  0
    6.0750   20.0530    1.6350 C   0  0  0  0  0  0  0  0  0  0  0  0
    5.9810   18.5610    3.6960 C   0  0  0  0  0  0  0  0  0  0  0  0
    0.9780   15.7670   -0.4130 C   0  0  1  0  0  0  0  0  0  0  0  0
    0.6040   16.2130   -1.8520 C   0  0  0  0  0  0  0  0  0  0  0  0
    0.7500   14.9640   -2.7600 C   0  0  0  0  0  0  0  0  0  0  0  0
    0.8770   13.7790   -1.7740 C   0  0  1  0  0  0  0  0  0  0  0  0
   -0.5890   13.4530   -1.3480 C   0  0  0  0  0  0  0  0  0  0  0  0
    1.6170   12.5100   -2.3110 C   0  0  2  0  0  0  0  0  0  0  0  0
    0.9430   11.8190   -3.5090 C   0  0  0  0  0  0  0  0  0  0  0  0
   -0.0410   10.7520   -3.1580 C   0  0  0  0  0  0  0  0  0  0  0  0
   -0.1630   10.1660   -1.9520 C   0  0  0  0  0  0  0  0  0  0  0  0
    0.8090   10.5000   -0.8130 C   0  0  1  0  0  0  0  0  0  0  0  0
    1.2880    9.1870   -0.1390 C   0  0  0  0  0  0  0  0  0  0  0  0
    0.1280    8.3090    0.3210 C   0  0  0  0  0  0  0  0  0  0  0  0
   -0.7830    7.9510   -0.8500 C   0  0  2  0  0  0  0  0  0  0  0  0
   -0.0620    7.1070   -1.7540 O   0  0  0  0  0  0  0  0  0  0  0  0
   -1.3200    9.1950   -1.6120 C   0  0  0  0  0  0  0  0  0  0  0  0
   -2.3420    9.9470   -0.7250 C   0  0  0  0  0  0  0  0  0  0  0  0
   -2.1080    8.6920   -2.8520 C   0  0  0  0  0  0  0  0  0  0  0  0
    2.0130   11.4670   -1.1890 C   0  0  1  0  0  0  0  0  0  0  0  0
    3.2060   10.6370   -1.7530 C   0  0  0  0  0  0  0  0  0  0  0  0
    2.5380   12.1670    0.1200 C   0  0  0  0  0  0  0  0  0  0  0  0
    1.8450   13.4800    0.5330 C   0  0  0  0  0  0  0  0  0  0  0  0
    1.7520   14.4460   -0.6520 C   0  0  2  0  0  0  0  0  0  0  0  0
    3.2130   14.8090   -1.0890 C   0  0  0  0  0  0  0  0  0  0  0  0
    0.6900   18.5693    1.2498 H   0  0  0  0  0  0  0  0  0  0  0  0
    1.5310   18.9101   -0.3004 H   0  0  0  0  0  0  0  0  0  0  0  0
   -0.0200   18.0040   -0.3004 H   0  0  0  0  0  0  0  0  0  0  0  0
    1.7137   16.5940    1.4418 H   0  0  0  0  0  0  0  0  0  0  0  0
    3.7164   16.1297    0.2724 H   0  0  0  0  0  0  0  0  0  0  0  0
    3.1234   17.0324   -1.2030 H   0  0  0  0  0  0  0  0  0  0  0  0
    4.7395   18.4396   -0.2351 H   0  0  0  0  0  0  0  0  0  0  0  0
    3.1295   19.1057    0.2665 H   0  0  0  0  0  0  0  0  0  0  0  0
    4.0638   17.0949    1.8203 H   0  0  0  0  0  0  0  0  0  0  0  0
    6.5926   20.7486    2.3120 H   0  0  0  0  0  0  0  0  0  0  0  0
    6.8135   19.5410    1.0006 H   0  0  0  0  0  0  0  0  0  0  0  0
    5.3724   20.6133    1.0006 H   0  0  0  0  0  0  0  0  0  0  0  0
    5.4392   18.9556    4.5682 H   0  0  0  0  0  0  0  0  0  0  0  0
    5.9652   17.4614    3.7212 H   0  0  0  0  0  0  0  0  0  0  0  0
    7.0227   18.9134    3.7212 H   0  0  0  0  0  0  0  0  0  0  0  0
    0.1219   15.5864    0.2536 H   0  0  0  0  0  0  0  0  0  0  0  0
   -0.4325   16.5806   -1.8773 H   0  0  0  0  0  0  0  0  0  0  0  0
    1.2572   17.0289   -2.1948 H   0  0  0  0  0  0  0  0  0  0  0  0
   -0.1363   14.8434   -3.4003 H   0  0  0  0  0  0  0  0  0  0  0  0
    1.6139   15.0385   -3.4369 H   0  0  0  0  0  0  0  0  0  0  0  0
   -0.6571   13.4379   -0.2502 H   0  0  0  0  0  0  0  0  0  0  0  0
   -1.2664   14.2224   -1.7468 H   0  0  0  0  0  0  0  0  0  0  0  0
   -0.8765   12.4690   -1.7468 H   0  0  0  0  0  0  0  0  0  0  0  0
    2.5556   12.9317   -2.6998 H   0  0  0  0  0  0  0  0  0  0  0  0
    0.4166   12.5882   -4.0932 H   0  0  0  0  0  0  0  0  0  0  0  0
    1.7493   11.3188   -4.0654 H   0  0  0  0  0  0  0  0  0  0  0  0
   -0.7241   10.4163   -3.9521 H   0  0  0  0  0  0  0  0  0  0  0  0
    0.2366   11.1026   -0.0924 H   0  0  0  0  0  0  0  0  0  0  0  0
    1.8942    8.6206   -0.8613 H   0  0  0  0  0  0  0  0  0  0  0  0
    1.8721    9.4624    0.7515 H   0  0  0  0  0  0  0  0  0  0  0  0
    0.5291    7.3840    0.7609 H   0  0  0  0  0  0  0  0  0  0  0  0
   -0.4598    8.8657    1.0656 H   0  0  0  0  0  0  0  0  0  0  0  0
   -1.6615    7.4330   -0.4377 H   0  0  0  0  0  0  0  0  0  0  0  0
   -0.6360    6.3540   -1.9740 H   0  0  0  0  0  0  0  0  0  0  0  0
   -2.1055    9.7729    0.3351 H   0  0  0  0  0  0  0  0  0  0  0  0
   -2.2911   11.0246   -0.9399 H   0  0  0  0  0  0  0  0  0  0  0  0
   -3.3556    9.5778   -0.9399 H   0  0  0  0  0  0  0  0  0  0  0  0
   -2.9921    8.1277   -2.5205 H   0  0  0  0  0  0  0  0  0  0  0  0
   -2.4283    9.5531   -3.4569 H   0  0  0  0  0  0  0  0  0  0  0  0
   -1.4618    8.0390   -3.4569 H   0  0  0  0  0  0  0  0  0  0  0  0
    3.7946   10.2275   -0.9188 H   0  0  0  0  0  0  0  0  0  0  0  0
    2.8197    9.8117   -2.3691 H   0  0  0  0  0  0  0  0  0  0  0  0
    3.8455   11.2862   -2.3691 H   0  0  0  0  0  0  0  0  0  0  0  0
    2.4198   11.4536    0.9489 H   0  0  0  0  0  0  0  0  0  0  0  0
    3.5779   12.4485   -0.1021 H   0  0  0  0  0  0  0  0  0  0  0  0
    0.8307   13.2538    0.8935 H   0  0  0  0  0  0  0  0  0  0  0  0
    2.4385   13.9554    1.3278 H   0  0  0  0  0  0  0  0  0  0  0  0
    3.8353   14.9636   -0.1952 H   0  0  0  0  0  0  0  0  0  0  0  0
    3.6310   13.9874   -1.6892 H   0  0  0  0  0  0  0  0  0  0  0  0
    3.1979   15.7307   -1.6892 H   0  0  0  0  0  0  0  0  0  0  0  0
  1  2  1  0
  2  3  1  0
  3  4  1  0
  4  5  1  0
  5  6  1  0
  6  7  1  0
  7  8  1  0
  7  9  1  0
  2 10  1  0
 10 11  1  0
 11 12  1  0
 12 13  1  0
 13 14  1  1
 13 15  1  0
 15 16  1  0
 16 17  1  0
 17 18  2  0
 18 19  1  0
 19 20  1  0
 20 21  1  0
 21 22  1  0
 22 23  1  0
 22 24  1  0
 24 25  1  0
 24 26  1  0
 19 27  1  0
 27 28  1  6
 27 29  1  0
 29 30  1  0
 30 31  1  0
 31 32  1  6
  7  5  1  0
 31 10  1  0
 31 13  1  0
 27 15  1  0
 24 18  1  0
  1 33  1  0
  1 34  1  0
  1 35  1  0
  2 36  1  1
  3 37  1  0
  3 38  1  0
  4 39  1  0
  4 40  1  0
  5 41  1  1
  8 42  1  0
  8 43  1  0
  8 44  1  0
  9 45  1  0
  9 46  1  0
  9 47  1  0
 10 48  1  1
 11 49  1  0
 11 50  1  0
 12 51  1  0
 12 52  1  0
 14 53  1  0
 14 54  1  0
 14 55  1  0
 15 56  1  6
 16 57  1  0
 16 58  1  0
 17 59  1  0
 19 60  1  1
 20 61  1  0
 20 62  1  0
 21 63  1  0
 21 64  1  0
 22 65  1  1
 23 66  1  0
 25 67  1  0
 25 68  1  0
 25 69  1  0
 26 70  1  0
 26 71  1  0
 26 72  1  0
 28 73  1  0
 28 74  1  0
 28 75  1  0
 29 76  1  0
 29 77  1  0
 30 78  1  0
 30 79  1  0
 32 80  1  0
 32 81  1  0
 32 82  1  0
M  END
>  <meeko>  (4) 
{"is_sidechain": [false], "intermolecular_energy": 2.731, "internal_energy": -0.839}

$$$$
EPH_relaxed_0001_pdb2pqr_Repair_341_r2_0001_out
     RDKit          3D

 82 86  0  0  0  0  0  0  0  0999 V2000
   -4.0300    7.3950   -3.5780 C   0  0  0  0  0  0  0  0  0  0  0  0
   -3.6720    7.2900   -2.0930 C   0  0  2  0  0  0  0  0  0  0  0  0
   -4.8680    6.8250   -1.2380 C   0  0  0  0  0  0  0  0  0  0  0  0
   -6.1460    6.5860   -2.0460 C   0  0  0  0  0  0  0  0  0  0  0  0
   -7.3320    6.3660   -1.1560 C   0  0  2  0  0  0  0  0  0  0  0  0
   -8.3970    5.6140   -1.7520 O   0  0  0  0  0  0  0  0  0  0  0  0
   -8.6960    6.9780   -1.4140 C   0  0  0  0  0  0  0  0  0  0  0  0
   -8.9450    7.8590   -2.5980 C   0  0  0  0  0  0  0  0  0  0  0  0
   -9.6450    7.1200   -0.2650 C   0  0  0  0  0  0  0  0  0  0  0  0
   -3.1590    8.6320   -1.5850 C   0  0  1  0  0  0  0  0  0  0  0  0
   -3.8190    9.0570   -0.2470 C   0  0  0  0  0  0  0  0  0  0  0  0
   -2.7350    9.8080    0.5680 C   0  0  0  0  0  0  0  0  0  0  0  0
   -1.6020   10.0820   -0.4490 C   0  0  1  0  0  0  0  0  0  0  0  0
   -2.0670   11.3470   -1.2360 C   0  0  0  0  0  0  0  0  0  0  0  0
   -0.1690   10.2670    0.1470 C   0  0  2  0  0  0  0  0  0  0  0  0
   -0.0050   11.4710    1.0910 C   0  0  0  0  0  0  0  0  0  0  0  0
    0.4090   12.7450    0.4330 C   0  0  0  0  0  0  0  0  0  0  0  0
    0.9150   12.8550   -0.8090 C   0  0  0  0  0  0  0  0  0  0  0  0
    1.2070   11.6090   -1.6540 C   0  0  1  0  0  0  0  0  0  0  0  0
    2.6140   11.7360   -2.2960 C   0  0  0  0  0  0  0  0  0  0  0  0
    2.7810   13.0300   -3.0870 C   0  0  0  0  0  0  0  0  0  0  0  0
    2.5400   14.2470   -2.1980 C   0  0  2  0  0  0  0  0  0  0  0  0
    3.5810   14.3170   -1.2180 O   0  0  0  0  0  0  0  0  0  0  0  0
    1.1560   14.2250   -1.4910 C   0  0  0  0  0  0  0  0  0  0  0  0
    0.0350   14.4540   -2.5340 C   0  0  0  0  0  0  0  0  0  0  0  0
    1.0980   15.4340   -0.5180 C   0  0  0  0  0  0  0  0  0  0  0  0
    0.9920   10.2120   -0.9270 C   0  0  1  0  0  0  0  0  0  0  0  0
    2.2880    9.8050   -0.1620 C   0  0  0  0  0  0  0  0  0  0  0  0
    0.7490    9.0990   -2.0140 C   0  0  0  0  0  0  0  0  0  0  0  0
   -0.7050    8.8820   -2.4750 C   0  0  0  0  0  0  0  0  0  0  0  0
   -1.6450    8.7440   -1.2740 C   0  0  2  0  0  0  0  0  0  0  0  0
   -1.2170    7.4670   -0.4750 C   0  0  0  0  0  0  0  0  0  0  0  0
   -5.0809    7.7032   -3.6809 H   0  0  0  0  0  0  0  0  0  0  0  0
   -3.3804    8.1404   -4.0600 H   0  0  0  0  0  0  0  0  0  0  0  0
   -3.8859    6.4168   -4.0600 H   0  0  0  0  0  0  0  0  0  0  0  0
   -2.8826    6.5301   -1.9968 H   0  0  0  0  0  0  0  0  0  0  0  0
   -4.5926    5.8849   -0.7377 H   0  0  0  0  0  0  0  0  0  0  0  0
   -5.0857    7.6325   -0.5235 H   0  0  0  0  0  0  0  0  0  0  0  0
   -6.3352    7.4636   -2.6816 H   0  0  0  0  0  0  0  0  0  0  0  0
   -6.0022    5.6815   -2.6553 H   0  0  0  0  0  0  0  0  0  0  0  0
   -6.6886    6.3467   -0.2640 H   0  0  0  0  0  0  0  0  0  0  0  0
   -9.2291    8.8643   -2.2537 H   0  0  0  0  0  0  0  0  0  0  0  0
   -8.0301    7.9244   -3.2053 H   0  0  0  0  0  0  0  0  0  0  0  0
   -9.7587    7.4358   -3.2053 H   0  0  0  0  0  0  0  0  0  0  0  0
   -9.0902    7.0370    0.6812 H   0  0  0  0  0  0  0  0  0  0  0  0
  -10.1382    8.1019   -0.3160 H   0  0  0  0  0  0  0  0  0  0  0  0
  -10.4040    6.3254   -0.3160 H   0  0  0  0  0  0  0  0  0  0  0  0
   -3.4132    9.2643   -2.4485 H   0  0  0  0  0  0  0  0  0  0  0  0
   -4.6747    9.7205   -0.4407 H   0  0  0  0  0  0  0  0  0  0  0  0
   -4.1921    8.1816    0.3048 H   0  0  0  0  0  0  0  0  0  0  0  0
   -3.1343   10.7517    0.9681 H   0  0  0  0  0  0  0  0  0  0  0  0
   -2.3865    9.2261    1.4340 H   0  0  0  0  0  0  0  0  0  0  0  0
   -2.3567   12.1350   -0.5253 H   0  0  0  0  0  0  0  0  0  0  0  0
   -1.2430   11.7086   -1.8687 H   0  0  0  0  0  0  0  0  0  0  0  0
   -2.9290   11.0889   -1.8687 H   0  0  0  0  0  0  0  0  0  0  0  0
   -0.0603    9.3742    0.7804 H   0  0  0  0  0  0  0  0  0  0  0  0
   -0.9692   11.6445    1.5913 H   0  0  0  0  0  0  0  0  0  0  0  0
    0.8088   11.2071    1.7824 H   0  0  0  0  0  0  0  0  0  0  0  0
    0.2905   13.6725    1.0123 H   0  0  0  0  0  0  0  0  0  0  0  0
    0.4384   11.5886   -2.4406 H   0  0  0  0  0  0  0  0  0  0  0  0
    3.3698   11.7109   -1.4971 H   0  0  0  0  0  0  0  0  0  0  0  0
    2.7383   10.8975   -2.9970 H   0  0  0  0  0  0  0  0  0  0  0  0
    3.8032   13.0758   -3.4909 H   0  0  0  0  0  0  0  0  0  0  0  0
    2.0442   13.0401   -3.9038 H   0  0  0  0  0  0  0  0  0  0  0  0
    2.5462   15.1353   -2.8468 H   0  0  0  0  0  0  0  0  0  0  0  0
    3.2620   14.8760   -0.4900 H   0  0  0  0  0  0  0  0  0  0  0  0
   -0.9150   14.6481   -2.0146 H   0  0  0  0  0  0  0  0  0  0  0  0
    0.2915   15.3183   -3.1642 H   0  0  0  0  0  0  0  0  0  0  0  0
   -0.0680   13.5583   -3.1642 H   0  0  0  0  0  0  0  0  0  0  0  0
    1.1154   15.0704    0.5200 H   0  0  0  0  0  0  0  0  0  0  0  0
    1.9659   16.0870   -0.6924 H   0  0  0  0  0  0  0  0  0  0  0  0
    0.1716   16.0009   -0.6924 H   0  0  0  0  0  0  0  0  0  0  0  0
    2.1073    9.8618    0.9216 H   0  0  0  0  0  0  0  0  0  0  0  0
    2.5665    8.7762   -0.4339 H   0  0  0  0  0  0  0  0  0  0  0  0
    3.1047   10.4899   -0.4339 H   0  0  0  0  0  0  0  0  0  0  0  0
    1.3428    9.3651   -2.9009 H   0  0  0  0  0  0  0  0  0  0  0  0
    1.0404    8.1556   -1.5292 H   0  0  0  0  0  0  0  0  0  0  0  0
   -1.0220    9.7420   -3.0833 H   0  0  0  0  0  0  0  0  0  0  0  0
   -0.7515    7.9552   -3.0656 H   0  0  0  0  0  0  0  0  0  0  0  0
   -1.2849    7.6697    0.6040 H   0  0  0  0  0  0  0  0  0  0  0  0
   -1.8843    6.6317   -0.7339 H   0  0  0  0  0  0  0  0  0  0  0  0
   -0.1811    7.2026   -0.7339 H   0  0  0  0  0  0  0  0  0  0  0  0
  1  2  1  0
  2  3  1  0
  3  4  1  0
  4  5  1  0
  5  6  1  0
  6  7  1  0
  7  8  1  0
  7  9  1  0
  2 10  1  0
 10 11  1  0
 11 12  1  0
 12 13  1  0
 13 14  1  6
 13 15  1  0
 15 16  1  0
 16 17  1  0
 17 18  2  0
 18 19  1  0
 19 20  1  0
 20 21  1  0
 21 22  1  0
 22 23  1  0
 22 24  1  0
 24 25  1  0
 24 26  1  0
 19 27  1  0
 27 28  1  1
 27 29  1  0
 29 30  1  0
 30 31  1  0
 31 32  1  1
  7  5  1  0
 31 10  1  0
 31 13  1  0
 27 15  1  0
 24 18  1  0
  1 33  1  0
  1 34  1  0
  1 35  1  0
  2 36  1  6
  3 37  1  0
  3 38  1  0
  4 39  1  0
  4 40  1  0
  5 41  1  1
  8 42  1  0
  8 43  1  0
  8 44  1  0
  9 45  1  0
  9 46  1  0
  9 47  1  0
 10 48  1  6
 11 49  1  0
 11 50  1  0
 12 51  1  0
 12 52  1  0
 14 53  1  0
 14 54  1  0
 14 55  1  0
 15 56  1  1
 16 57  1  0
 16 58  1  0
 17 59  1  0
 19 60  1  6
 20 61  1  0
 20 62  1  0
 21 63  1  0
 21 64  1  0
 22 65  1  6
 23 66  1  0
 25 67  1  0
 25 68  1  0
 25 69  1  0
 26 70  1  0
 26 71  1  0
 26 72  1  0
 28 73  1  0
 28 74  1  0
 28 75  1  0
 29 76  1  0
 29 77  1  0
 30 78  1  0
 30 79  1  0
 32 80  1  0
 32 81  1  0
 32 82  1  0
M  END
>  <meeko>  (5) 
{"is_sidechain": [false], "intermolecular_energy": 2.731, "internal_energy": -0.839}

$$$$
EPH_relaxed_0001_pdb2pqr_Repair_341_r2_0001_out
     RDKit          3D

 82 86  0  0  0  0  0  0  0  0999 V2000
   -0.3130   15.2120   -7.6510 C   0  0  0  0  0  0  0  0  0  0  0  0
    1.0710   15.1650   -6.9980 C   0  0  2  0  0  0  0  0  0  0  0  0
    2.2060   15.2560   -8.0380 C   0  0  0  0  0  0  0  0  0  0  0  0
    2.1990   16.5560   -8.8460 C   0  0  0  0  0  0  0  0  0  0  0  0
    1.8110   16.3190  -10.2740 C   0  0  2  0  0  0  0  0  0  0  0  0
    1.1690   15.0610  -10.5190 O   0  0  0  0  0  0  0  0  0  0  0  0
    2.4470   15.2550  -11.1480 C   0  0  0  0  0  0  0  0  0  0  0  0
    3.5240   14.3570  -10.6260 C   0  0  0  0  0  0  0  0  0  0  0  0
    2.3700   15.4090  -12.6350 C   0  0  0  0  0  0  0  0  0  0  0  0
    1.2170   13.8890   -6.1780 C   0  0  1  0  0  0  0  0  0  0  0  0
    2.6390   13.2750   -6.2740 C   0  0  0  0  0  0  0  0  0  0  0  0
    2.9510   12.6510   -4.8900 C   0  0  0  0  0  0  0  0  0  0  0  0
    1.5900   12.6300   -4.1560 C   0  0  1  0  0  0  0  0  0  0  0  0
    0.8590   11.3640   -4.7020 C   0  0  0  0  0  0  0  0  0  0  0  0
    1.6480   12.6330   -2.5930 C   0  0  2  0  0  0  0  0  0  0  0  0
    2.3340   11.4090   -1.9630 C   0  0  0  0  0  0  0  0  0  0  0  0
    1.4310   10.2630   -1.6470 C   0  0  0  0  0  0  0  0  0  0  0  0
    0.0870   10.3190   -1.5940 C   0  0  0  0  0  0  0  0  0  0  0  0
   -0.6540   11.6510   -1.7720 C   0  0  1  0  0  0  0  0  0  0  0  0
   -1.7380   11.7910   -0.6700 C   0  0  0  0  0  0  0  0  0  0  0  0
   -2.6860   10.5970   -0.6270 C   0  0  0  0  0  0  0  0  0  0  0  0
   -1.9180    9.2990   -0.3910 C   0  0  2  0  0  0  0  0  0  0  0  0
   -1.3570    9.3280    0.9240 O   0  0  0  0  0  0  0  0  0  0  0  0
   -0.7930    9.0540   -1.4350 C   0  0  0  0  0  0  0  0  0  0  0  0
   -1.4210    8.7230   -2.8110 C   0  0  0  0  0  0  0  0  0  0  0  0
   -0.0060    7.7880   -1.0010 C   0  0  0  0  0  0  0  0  0  0  0  0
    0.2630   12.9430   -1.8940 C   0  0  1  0  0  0  0  0  0  0  0  0
    0.5940   13.4970   -0.4740 C   0  0  0  0  0  0  0  0  0  0  0  0
   -0.5420   14.0760   -2.6350 C   0  0  0  0  0  0  0  0  0  0  0  0
   -0.4630   14.0910   -4.1740 C   0  0  0  0  0  0  0  0  0  0  0  0
    0.9900   13.9970   -4.6490 C   0  0  2  0  0  0  0  0  0  0  0  0
    1.7460   15.2680   -4.1330 C   0  0  0  0  0  0  0  0  0  0  0  0
   -1.0865   15.2383   -6.8694 H   0  0  0  0  0  0  0  0  0  0  0  0
   -0.3929   16.1134   -8.2764 H   0  0  0  0  0  0  0  0  0  0  0  0
   -0.4539   14.3181   -8.2764 H   0  0  0  0  0  0  0  0  0  0  0  0
    1.1556   16.0413   -6.3384 H   0  0  0  0  0  0  0  0  0  0  0  0
    3.1678   15.1810   -7.5095 H   0  0  0  0  0  0  0  0  0  0  0  0
    2.0536   14.4334   -8.7522 H   0  0  0  0  0  0  0  0  0  0  0  0
    1.4798   17.2538   -8.3923 H   0  0  0  0  0  0  0  0  0  0  0  0
    3.2164   16.9740   -8.8319 H   0  0  0  0  0  0  0  0  0  0  0  0
    1.6367   17.3939  -10.4296 H   0  0  0  0  0  0  0  0  0  0  0  0
    3.5100   14.3686   -9.5262 H   0  0  0  0  0  0  0  0  0  0  0  0
    3.3517   13.3313  -10.9840 H   0  0  0  0  0  0  0  0  0  0  0  0
    4.5020   14.7109  -10.9840 H   0  0  0  0  0  0  0  0  0  0  0  0
    1.8904   16.3682  -12.8799 H   0  0  0  0  0  0  0  0  0  0  0  0
    3.3848   15.3877  -13.0589 H   0  0  0  0  0  0  0  0  0  0  0  0
    1.7782   14.5843  -13.0589 H   0  0  0  0  0  0  0  0  0  0  0  0
    0.4200   13.2843   -6.6353 H   0  0  0  0  0  0  0  0  0  0  0  0
    2.6649   12.4995   -7.0537 H   0  0  0  0  0  0  0  0  0  0  0  0
    3.3829   14.0409   -6.5387 H   0  0  0  0  0  0  0  0  0  0  0  0
    3.3464   11.6309   -5.0042 H   0  0  0  0  0  0  0  0  0  0  0  0
    3.7139   13.2199   -4.3383 H   0  0  0  0  0  0  0  0  0  0  0  0
    0.5058   10.7523   -3.8587 H   0  0  0  0  0  0  0  0  0  0  0  0
    0.0002   11.6728   -5.3161 H   0  0  0  0  0  0  0  0  0  0  0  0
    1.5558   10.7745   -5.3161 H   0  0  0  0  0  0  0  0  0  0  0  0
    2.3096   13.4864   -2.3833 H   0  0  0  0  0  0  0  0  0  0  0  0
    3.1030   11.0523   -2.6640 H   0  0  0  0  0  0  0  0  0  0  0  0
    2.7399   11.7507   -0.9994 H   0  0  0  0  0  0  0  0  0  0  0  0
    1.9034    9.2914   -1.4401 H   0  0  0  0  0  0  0  0  0  0  0  0
   -1.1316   11.6044   -2.7618 H   0  0  0  0  0  0  0  0  0  0  0  0
   -1.2389   11.8803    0.3062 H   0  0  0  0  0  0  0  0  0  0  0  0
   -2.3365   12.6843   -0.9020 H   0  0  0  0  0  0  0  0  0  0  0  0
   -3.4093   10.7408    0.1892 H   0  0  0  0  0  0  0  0  0  0  0  0
   -3.2060   10.5265   -1.5938 H   0  0  0  0  0  0  0  0  0  0  0  0
   -2.6317    8.4690   -0.4996 H   0  0  0  0  0  0  0  0  0  0  0  0
   -0.6080    9.9480    0.9110 H   0  0  0  0  0  0  0  0  0  0  0  0
   -2.3851    8.2149   -2.6614 H   0  0  0  0  0  0  0  0  0  0  0  0
   -1.5808    9.6540   -3.3746 H   0  0  0  0  0  0  0  0  0  0  0  0
   -0.7433    8.0649   -3.3746 H   0  0  0  0  0  0  0  0  0  0  0  0
    0.0268    7.7352    0.0972 H   0  0  0  0  0  0  0  0  0  0  0  0
   -0.5064    6.8917   -1.3964 H   0  0  0  0  0  0  0  0  0  0  0  0
    1.0192    7.8401   -1.3964 H   0  0  0  0  0  0  0  0  0  0  0  0
    0.1876   12.8167    0.2889 H   0  0  0  0  0  0  0  0  0  0  0  0
    1.6850   13.5718   -0.3547 H   0  0  0  0  0  0  0  0  0  0  0  0
    0.1429   14.4931   -0.3547 H   0  0  0  0  0  0  0  0  0  0  0  0
   -1.6008   13.9682   -2.3571 H   0  0  0  0  0  0  0  0  0  0  0  0
   -0.0749   15.0186   -2.3134 H   0  0  0  0  0  0  0  0  0  0  0  0
   -1.0277   13.2349   -4.5717 H   0  0  0  0  0  0  0  0  0  0  0  0
   -0.8906   15.0368   -4.5381 H   0  0  0  0  0  0  0  0  0  0  0  0
    1.7483   15.2719   -3.0330 H   0  0  0  0  0  0  0  0  0  0  0  0
    2.7822   15.2532   -4.5018 H   0  0  0  0  0  0  0  0  0  0  0  0
    1.2384   16.1715   -4.5018 H   0  0  0  0  0  0  0  0  0  0  0  0
  1  2  1  0
  2  3  1  0
  3  4  1  0
  4  5  1  0
  5  6  1  0
  6  7  1  0
  7  8  1  0
  7  9  1  0
  2 10  1  0
 10 11  1  0
 11 12  1  0
 12 13  1  0
 13 14  1  1
 13 15  1  0
 15 16  1  0
 16 17  1  0
 17 18  2  0
 18 19  1  0
 19 20  1  0
 20 21  1  0
 21 22  1  0
 22 23  1  0
 22 24  1  0
 24 25  1  0
 24 26  1  0
 19 27  1  0
 27 28  1  1
 27 29  1  0
 29 30  1  0
 30 31  1  0
 31 32  1  1
  7  5  1  0
 31 10  1  0
 31 13  1  0
 27 15  1  0
 24 18  1  0
  1 33  1  0
  1 34  1  0
  1 35  1  0
  2 36  1  1
  3 37  1  0
  3 38  1  0
  4 39  1  0
  4 40  1  0
  5 41  1  6
  8 42  1  0
  8 43  1  0
  8 44  1  0
  9 45  1  0
  9 46  1  0
  9 47  1  0
 10 48  1  6
 11 49  1  0
 11 50  1  0
 12 51  1  0
 12 52  1  0
 14 53  1  0
 14 54  1  0
 14 55  1  0
 15 56  1  6
 16 57  1  0
 16 58  1  0
 17 59  1  0
 19 60  1  6
 20 61  1  0
 20 62  1  0
 21 63  1  0
 21 64  1  0
 22 65  1  1
 23 66  1  0
 25 67  1  0
 25 68  1  0
 25 69  1  0
 26 70  1  0
 26 71  1  0
 26 72  1  0
 28 73  1  0
 28 74  1  0
 28 75  1  0
 29 76  1  0
 29 77  1  0
 30 78  1  0
 30 79  1  0
 32 80  1  0
 32 81  1  0
 32 82  1  0
M  END
>  <meeko>  (6) 
{"is_sidechain": [false], "intermolecular_energy": 2.731, "internal_energy": -0.839}

$$$$
EPH_relaxed_0001_pdb2pqr_Repair_341_r2_0001_out
     RDKit          3D

 82 86  0  0  0  0  0  0  0  0999 V2000
    2.4710   16.8240   -7.2690 C   0  0  0  0  0  0  0  0  0  0  0  0
    1.4470   15.6890   -7.1900 C   0  0  2  0  0  0  0  0  0  0  0  0
    0.1790   15.9920   -8.0130 C   0  0  0  0  0  0  0  0  0  0  0  0
    0.4640   16.3450   -9.4750 C   0  0  0  0  0  0  0  0  0  0  0  0
    1.8710   16.0040   -9.8630 C   0  0  2  0  0  0  0  0  0  0  0  0
    2.2900   16.5380  -11.1260 O   0  0  0  0  0  0  0  0  0  0  0  0
    2.2210   15.1060  -11.0350 C   0  0  0  0  0  0  0  0  0  0  0  0
    1.1580   14.4930  -11.8930 C   0  0  0  0  0  0  0  0  0  0  0  0
    3.5590   14.4360  -11.0490 C   0  0  0  0  0  0  0  0  0  0  0  0
    1.0730   15.4260   -5.7360 C   0  0  1  0  0  0  0  0  0  0  0  0
   -0.2510   16.1230   -5.3240 C   0  0  0  0  0  0  0  0  0  0  0  0
   -0.9570   15.1810   -4.3150 C   0  0  0  0  0  0  0  0  0  0  0  0
    0.1230   14.1440   -3.9280 C   0  0  1  0  0  0  0  0  0  0  0  0
    0.9940   14.8560   -2.8460 C   0  0  0  0  0  0  0  0  0  0  0  0
   -0.3980   12.7570   -3.4280 C   0  0  2  0  0  0  0  0  0  0  0  0
   -1.2320   12.8000   -2.1360 C   0  0  0  0  0  0  0  0  0  0  0  0
   -0.4550   12.6490   -0.8700 C   0  0  0  0  0  0  0  0  0  0  0  0
    0.8120   12.2020   -0.7790 C   0  0  0  0  0  0  0  0  0  0  0  0
    1.5620   11.7010   -2.0190 C   0  0  1  0  0  0  0  0  0  0  0  0
    2.2670   10.3580   -1.6910 C   0  0  0  0  0  0  0  0  0  0  0  0
    3.1680   10.4560   -0.4640 C   0  0  0  0  0  0  0  0  0  0  0  0
    2.3750   10.9010    0.7620 C   0  0  2  0  0  0  0  0  0  0  0  0
    1.4460    9.8700    1.1100 O   0  0  0  0  0  0  0  0  0  0  0  0
    1.6130   12.2390    0.5460 C   0  0  0  0  0  0  0  0  0  0  0  0
    2.6260   13.4080    0.4690 C   0  0  0  0  0  0  0  0  0  0  0  0
    0.7430   12.5010    1.8050 C   0  0  0  0  0  0  0  0  0  0  0  0
    0.7130   11.6320   -3.3620 C   0  0  1  0  0  0  0  0  0  0  0  0
   -0.0310   10.2650   -3.4520 C   0  0  0  0  0  0  0  0  0  0  0  0
    1.6940   11.6860   -4.5930 C   0  0  0  0  0  0  0  0  0  0  0  0
    2.0770   13.0840   -5.1150 C   0  0  0  0  0  0  0  0  0  0  0  0
    0.8320   13.9540   -5.3180 C   0  0  2  0  0  0  0  0  0  0  0  0
   -0.0520   13.2730   -6.4180 C   0  0  0  0  0  0  0  0  0  0  0  0
    2.7521   17.1356   -6.2522 H   0  0  0  0  0  0  0  0  0  0  0  0
    3.3652   16.4744   -7.8058 H   0  0  0  0  0  0  0  0  0  0  0  0
    2.0315   17.6776   -7.8058 H   0  0  0  0  0  0  0  0  0  0  0  0
    1.9145   14.7918   -7.6219 H   0  0  0  0  0  0  0  0  0  0  0  0
   -0.4701   15.1042   -7.9903 H   0  0  0  0  0  0  0  0  0  0  0  0
   -0.2976   16.8722   -7.5568 H   0  0  0  0  0  0  0  0  0  0  0  0
   -0.2294   15.7841  -10.1189 H   0  0  0  0  0  0  0  0  0  0  0  0
    0.3271   17.4294   -9.5991 H   0  0  0  0  0  0  0  0  0  0  0  0
    2.1854   15.9978   -8.8089 H   0  0  0  0  0  0  0  0  0  0  0  0
    0.3829   14.0460  -11.2532 H   0  0  0  0  0  0  0  0  0  0  0  0
    0.7064   15.2694  -12.5281 H   0  0  0  0  0  0  0  0  0  0  0  0
    1.6038   13.7133  -12.5281 H   0  0  0  0  0  0  0  0  0  0  0  0
    3.8955   14.2675  -10.0154 H   0  0  0  0  0  0  0  0  0  0  0  0
    3.4804   13.4709  -11.5710 H   0  0  0  0  0  0  0  0  0  0  0  0
    4.2847   15.0771  -11.5710 H   0  0  0  0  0  0  0  0  0  0  0  0
    1.9753   15.8144   -5.2411 H   0  0  0  0  0  0  0  0  0  0  0  0
   -0.0373   17.0929   -4.8511 H   0  0  0  0  0  0  0  0  0  0  0  0
   -0.8879   16.3112   -6.2009 H   0  0  0  0  0  0  0  0  0  0  0  0
   -1.2922   15.7413   -3.4298 H   0  0  0  0  0  0  0  0  0  0  0  0
   -1.8542   14.7093   -4.7422 H   0  0  0  0  0  0  0  0  0  0  0  0
    0.6420   14.5683   -1.8444 H   0  0  0  0  0  0  0  0  0  0  0  0
    2.0453   14.5554   -2.9656 H   0  0  0  0  0  0  0  0  0  0  0  0
    0.9085   15.9461   -2.9656 H   0  0  0  0  0  0  0  0  0  0  0  0
   -1.0980   12.4673   -4.2255 H   0  0  0  0  0  0  0  0  0  0  0  0
   -1.7545   13.7673   -2.1008 H   0  0  0  0  0  0  0  0  0  0  0  0
   -1.9096   11.9347   -2.1822 H   0  0  0  0  0  0  0  0  0  0  0  0
   -0.9600   12.9262    0.0671 H   0  0  0  0  0  0  0  0  0  0  0  0
    2.3134   12.4701   -2.2510 H   0  0  0  0  0  0  0  0  0  0  0  0
    1.4991    9.5927   -1.5046 H   0  0  0  0  0  0  0  0  0  0  0  0
    2.9004   10.0942   -2.5507 H   0  0  0  0  0  0  0  0  0  0  0  0
    3.6143    9.4704   -0.2656 H   0  0  0  0  0  0  0  0  0  0  0  0
    3.9525   11.2008   -0.6635 H   0  0  0  0  0  0  0  0  0  0  0  0
    3.0955   11.0772    1.5743 H   0  0  0  0  0  0  0  0  0  0  0  0
    0.5500   10.2220    0.9750 H   0  0  0  0  0  0  0  0  0  0  0  0
    2.8996   13.7237    1.4866 H   0  0  0  0  0  0  0  0  0  0  0  0
    3.5277   13.0771   -0.0671 H   0  0  0  0  0  0  0  0  0  0  0  0
    2.1702   14.2535   -0.0671 H   0  0  0  0  0  0  0  0  0  0  0  0
    1.3428   12.3204    2.7092 H   0  0  0  0  0  0  0  0  0  0  0  0
    0.3939   13.5441    1.7989 H   0  0  0  0  0  0  0  0  0  0  0  0
   -0.1241   11.8241    1.7989 H   0  0  0  0  0  0  0  0  0  0  0  0
   -0.2346    9.8909   -2.4378 H   0  0  0  0  0  0  0  0  0  0  0  0
   -0.9806   10.3991   -3.9908 H   0  0  0  0  0  0  0  0  0  0  0  0
    0.5972    9.5404   -3.9908 H   0  0  0  0  0  0  0  0  0  0  0  0
    2.6227   11.1738   -4.3012 H   0  0  0  0  0  0  0  0  0  0  0  0
    1.1454   11.2104   -5.4194 H   0  0  0  0  0  0  0  0  0  0  0  0
    2.7411   13.5709   -4.3857 H   0  0  0  0  0  0  0  0  0  0  0  0
    2.5863   12.9693   -6.0832 H   0  0  0  0  0  0  0  0  0  0  0  0
   -0.8356   12.6693   -5.9368 H   0  0  0  0  0  0  0  0  0  0  0  0
   -0.5186   14.0473   -7.0447 H   0  0  0  0  0  0  0  0  0  0  0  0
    0.5776   12.6243   -7.0447 H   0  0  0  0  0  0  0  0  0  0  0  0
  1  2  1  0
  2  3  1  0
  3  4  1  0
  4  5  1  0
  5  6  1  0
  6  7  1  0
  7  8  1  0
  7  9  1  0
  2 10  1  0
 10 11  1  0
 11 12  1  0
 12 13  1  0
 13 14  1  1
 13 15  1  0
 15 16  1  0
 16 17  1  0
 17 18  2  0
 18 19  1  0
 19 20  1  0
 20 21  1  0
 21 22  1  0
 22 23  1  0
 22 24  1  0
 24 25  1  0
 24 26  1  0
 19 27  1  0
 27 28  1  1
 27 29  1  0
 29 30  1  0
 30 31  1  0
 31 32  1  6
  7  5  1  0
 31 10  1  0
 31 13  1  0
 27 15  1  0
 24 18  1  0
  1 33  1  0
  1 34  1  0
  1 35  1  0
  2 36  1  6
  3 37  1  0
  3 38  1  0
  4 39  1  0
  4 40  1  0
  5 41  1  1
  8 42  1  0
  8 43  1  0
  8 44  1  0
  9 45  1  0
  9 46  1  0
  9 47  1  0
 10 48  1  1
 11 49  1  0
 11 50  1  0
 12 51  1  0
 12 52  1  0
 14 53  1  0
 14 54  1  0
 14 55  1  0
 15 56  1  6
 16 57  1  0
 16 58  1  0
 17 59  1  0
 19 60  1  6
 20 61  1  0
 20 62  1  0
 21 63  1  0
 21 64  1  0
 22 65  1  1
 23 66  1  0
 25 67  1  0
 25 68  1  0
 25 69  1  0
 26 70  1  0
 26 71  1  0
 26 72  1  0
 28 73  1  0
 28 74  1  0
 28 75  1  0
 29 76  1  0
 29 77  1  0
 30 78  1  0
 30 79  1  0
 32 80  1  0
 32 81  1  0
 32 82  1  0
M  END
>  <meeko>  (7) 
{"is_sidechain": [false], "intermolecular_energy": 2.731, "internal_energy": -0.839}

$$$$
EPH_relaxed_0001_pdb2pqr_Repair_341_r2_0001_out
     RDKit          3D

 82 86  0  0  0  0  0  0  0  0999 V2000
   -1.8270    7.9320   -2.1460 C   0  0  0  0  0  0  0  0  0  0  0  0
   -1.7950    8.6970   -0.8210 C   0  0  2  0  0  0  0  0  0  0  0  0
   -3.1280    8.5870   -0.0540 C   0  0  0  0  0  0  0  0  0  0  0  0
   -4.3640    8.7510   -0.9420 C   0  0  0  0  0  0  0  0  0  0  0  0
   -5.1740    7.4910   -1.0030 C   0  0  2  0  0  0  0  0  0  0  0  0
   -5.3720    6.9700   -2.3230 O   0  0  0  0  0  0  0  0  0  0  0  0
   -6.5520    7.4120   -1.6340 C   0  0  0  0  0  0  0  0  0  0  0  0
   -7.2000    8.6140   -2.2460 C   0  0  0  0  0  0  0  0  0  0  0  0
   -7.4640    6.2980   -1.2230 C   0  0  0  0  0  0  0  0  0  0  0  0
   -1.4590   10.1620   -1.0740 C   0  0  1  0  0  0  0  0  0  0  0  0
   -1.2100   10.9540    0.2370 C   0  0  0  0  0  0  0  0  0  0  0  0
   -0.1060   11.9970   -0.0730 C   0  0  0  0  0  0  0  0  0  0  0  0
    0.0060   11.9990   -1.6160 C   0  0  1  0  0  0  0  0  0  0  0  0
   -1.1660   12.9080   -2.1030 C   0  0  0  0  0  0  0  0  0  0  0  0
    1.3780   12.4600   -2.2080 C   0  0  2  0  0  0  0  0  0  0  0  0
    1.7720   13.9120   -1.8890 C   0  0  0  0  0  0  0  0  0  0  0  0
    1.3200   14.9290   -2.8840 C   0  0  0  0  0  0  0  0  0  0  0  0
    0.8760   14.6630   -4.1270 C   0  0  0  0  0  0  0  0  0  0  0  0
    0.8880   13.2320   -4.6790 C   0  0  1  0  0  0  0  0  0  0  0  0
    1.4760   13.2350   -6.1140 C   0  0  0  0  0  0  0  0  0  0  0  0
    0.7550   14.2110   -7.0390 C   0  0  0  0  0  0  0  0  0  0  0  0
    0.8150   15.6320   -6.4860 C   0  0  2  0  0  0  0  0  0  0  0  0
    2.1720   16.0830   -6.5170 O   0  0  0  0  0  0  0  0  0  0  0  0
    0.2580   15.7510   -5.0400 C   0  0  0  0  0  0  0  0  0  0  0  0
   -1.2790   15.5560   -5.0560 C   0  0  0  0  0  0  0  0  0  0  0  0
    0.5060   17.2030   -4.5500 C   0  0  0  0  0  0  0  0  0  0  0  0
    1.5620   12.1350   -3.7460 C   0  0  1  0  0  0  0  0  0  0  0  0
    3.0980   12.0830   -4.0100 C   0  0  0  0  0  0  0  0  0  0  0  0
    0.9970   10.7170   -4.1300 C   0  0  0  0  0  0  0  0  0  0  0  0
   -0.2960   10.2690   -3.4220 C   0  0  0  0  0  0  0  0  0  0  0  0
   -0.1890   10.4660   -1.9070 C   0  0  2  0  0  0  0  0  0  0  0  0
    0.9680    9.5470   -1.3860 C   0  0  0  0  0  0  0  0  0  0  0  0
   -1.8722    6.8515   -1.9446 H   0  0  0  0  0  0  0  0  0  0  0  0
   -2.7133    8.2348   -2.7229 H   0  0  0  0  0  0  0  0  0  0  0  0
   -0.9185    8.1597   -2.7229 H   0  0  0  0  0  0  0  0  0  0  0  0
   -1.0151    8.2397   -0.1943 H   0  0  0  0  0  0  0  0  0  0  0  0
   -3.1728    7.5975    0.4243 H   0  0  0  0  0  0  0  0  0  0  0  0
   -3.1466    9.4080    0.6778 H   0  0  0  0  0  0  0  0  0  0  0  0
   -4.9907    9.5583   -0.5352 H   0  0  0  0  0  0  0  0  0  0  0  0
   -4.0250    8.9904   -1.9607 H   0  0  0  0  0  0  0  0  0  0  0  0
   -4.7915    7.1698   -0.0229 H   0  0  0  0  0  0  0  0  0  0  0  0
   -7.5601    9.2819   -1.4496 H   0  0  0  0  0  0  0  0  0  0  0  0
   -6.4676    9.1481   -2.8692 H   0  0  0  0  0  0  0  0  0  0  0  0
   -8.0487    8.2957   -2.8692 H   0  0  0  0  0  0  0  0  0  0  0  0
   -7.5070    6.2455   -0.1251 H   0  0  0  0  0  0  0  0  0  0  0  0
   -8.4725    6.4840   -1.6210 H   0  0  0  0  0  0  0  0  0  0  0  0
   -7.0826    5.3461   -1.6210 H   0  0  0  0  0  0  0  0  0  0  0  0
   -2.3572   10.4628   -1.6331 H   0  0  0  0  0  0  0  0  0  0  0  0
   -2.1328   11.4621    0.5536 H   0  0  0  0  0  0  0  0  0  0  0  0
   -0.9010   10.2823    1.0514 H   0  0  0  0  0  0  0  0  0  0  0  0
   -0.3964   12.9915    0.2967 H   0  0  0  0  0  0  0  0  0  0  0  0
    0.8490   11.7513    0.4145 H   0  0  0  0  0  0  0  0  0  0  0  0
   -1.6969   13.3198   -1.2320 H   0  0  0  0  0  0  0  0  0  0  0  0
   -0.7630   13.7321   -2.7101 H   0  0  0  0  0  0  0  0  0  0  0  0
   -1.8639   12.3127   -2.7101 H   0  0  0  0  0  0  0  0  0  0  0  0
    2.0945   11.8300   -1.6606 H   0  0  0  0  0  0  0  0  0  0  0  0
    1.3382   14.1752   -0.9130 H   0  0  0  0  0  0  0  0  0  0  0  0
    2.8716   13.9392   -1.9044 H   0  0  0  0  0  0  0  0  0  0  0  0
    1.3524   15.9844   -2.5758 H   0  0  0  0  0  0  0  0  0  0  0  0
   -0.1629   12.9083   -4.7072 H   0  0  0  0  0  0  0  0  0  0  0  0
    2.5373   13.5190   -6.0597 H   0  0  0  0  0  0  0  0  0  0  0  0
    1.3484   12.2245   -6.5295 H   0  0  0  0  0  0  0  0  0  0  0  0
    1.2341   14.1894   -8.0290 H   0  0  0  0  0  0  0  0  0  0  0  0
   -0.2998   13.9082   -7.1154 H   0  0  0  0  0  0  0  0  0  0  0  0
    0.1736   16.2598   -7.1220 H   0  0  0  0  0  0  0  0  0  0  0  0
    2.5740   15.8650   -5.6590 H   0  0  0  0  0  0  0  0  0  0  0  0
   -1.6534   15.5085   -4.0228 H   0  0  0  0  0  0  0  0  0  0  0  0
   -1.7505   16.4015   -5.5783 H   0  0  0  0  0  0  0  0  0  0  0  0
   -1.5244   14.6195   -5.5783 H   0  0  0  0  0  0  0  0  0  0  0  0
    0.5095   17.2233   -3.4502 H   0  0  0  0  0  0  0  0  0  0  0  0
    1.4775   17.5561   -4.9263 H   0  0  0  0  0  0  0  0  0  0  0  0
   -0.2932   17.8585   -4.9263 H   0  0  0  0  0  0  0  0  0  0  0  0
    3.6346   12.0648   -3.0500 H   0  0  0  0  0  0  0  0  0  0  0  0
    3.3410   11.1761   -4.5831 H   0  0  0  0  0  0  0  0  0  0  0  0
    3.4018   12.9714   -4.5831 H   0  0  0  0  0  0  0  0  0  0  0  0
    0.8001   10.7192   -5.2122 H   0  0  0  0  0  0  0  0  0  0  0  0
    1.7666   10.0024   -3.8027 H   0  0  0  0  0  0  0  0  0  0  0  0
   -1.1393   10.8635   -3.8033 H   0  0  0  0  0  0  0  0  0  0  0  0
   -0.4546    9.1998   -3.6259 H   0  0  0  0  0  0  0  0  0  0  0  0
    0.9687    9.5464   -0.2860 H   0  0  0  0  0  0  0  0  0  0  0  0
    0.8152    8.5214   -1.7531 H   0  0  0  0  0  0  0  0  0  0  0  0
    1.9324    9.9280   -1.7531 H   0  0  0  0  0  0  0  0  0  0  0  0
  1  2  1  0
  2  3  1  0
  3  4  1  0
  4  5  1  0
  5  6  1  0
  6  7  1  0
  7  8  1  0
  7  9  1  0
  2 10  1  0
 10 11  1  0
 11 12  1  0
 12 13  1  0
 13 14  1  6
 13 15  1  0
 15 16  1  0
 16 17  1  0
 17 18  2  0
 18 19  1  0
 19 20  1  0
 20 21  1  0
 21 22  1  0
 22 23  1  0
 22 24  1  0
 24 25  1  0
 24 26  1  0
 19 27  1  0
 27 28  1  6
 27 29  1  0
 29 30  1  0
 30 31  1  0
 31 32  1  1
  7  5  1  0
 31 10  1  0
 31 13  1  0
 27 15  1  0
 24 18  1  0
  1 33  1  0
  1 34  1  0
  1 35  1  0
  2 36  1  1
  3 37  1  0
  3 38  1  0
  4 39  1  0
  4 40  1  0
  5 41  1  1
  8 42  1  0
  8 43  1  0
  8 44  1  0
  9 45  1  0
  9 46  1  0
  9 47  1  0
 10 48  1  6
 11 49  1  0
 11 50  1  0
 12 51  1  0
 12 52  1  0
 14 53  1  0
 14 54  1  0
 14 55  1  0
 15 56  1  1
 16 57  1  0
 16 58  1  0
 17 59  1  0
 19 60  1  6
 20 61  1  0
 20 62  1  0
 21 63  1  0
 21 64  1  0
 22 65  1  6
 23 66  1  0
 25 67  1  0
 25 68  1  0
 25 69  1  0
 26 70  1  0
 26 71  1  0
 26 72  1  0
 28 73  1  0
 28 74  1  0
 28 75  1  0
 29 76  1  0
 29 77  1  0
 30 78  1  0
 30 79  1  0
 32 80  1  0
 32 81  1  0
 32 82  1  0
M  END
>  <meeko>  (8) 
{"is_sidechain": [false], "intermolecular_energy": 2.731, "internal_energy": -0.839}

$$$$
EPH_relaxed_0001_pdb2pqr_Repair_341_r2_0001_out
     RDKit          3D

 82 86  0  0  0  0  0  0  0  0999 V2000
    0.8550   14.9650   -2.6030 C   0  0  0  0  0  0  0  0  0  0  0  0
    1.1540   14.3000   -3.9500 C   0  0  2  0  0  0  0  0  0  0  0  0
    0.4700   15.0320   -5.1220 C   0  0  0  0  0  0  0  0  0  0  0  0
    1.0590   14.6830   -6.4920 C   0  0  0  0  0  0  0  0  0  0  0  0
    0.8350   15.7810   -7.4870 C   0  0  2  0  0  0  0  0  0  0  0  0
    0.3790   15.3400   -8.7730 O   0  0  0  0  0  0  0  0  0  0  0  0
    1.6750   15.9610   -8.7380 C   0  0  0  0  0  0  0  0  0  0  0  0
    2.8030   15.0330   -9.0600 C   0  0  0  0  0  0  0  0  0  0  0  0
    1.7140   17.3100   -9.3860 C   0  0  0  0  0  0  0  0  0  0  0  0
    0.7140   12.8410   -3.9180 C   0  0  1  0  0  0  0  0  0  0  0  0
    1.8430   11.8680   -4.3500 C   0  0  0  0  0  0  0  0  0  0  0  0
    1.6730   10.5810   -3.5020 C   0  0  0  0  0  0  0  0  0  0  0  0
    0.2730   10.7210   -2.8580 C   0  0  1  0  0  0  0  0  0  0  0  0
   -0.7260   10.2710   -3.9690 C   0  0  0  0  0  0  0  0  0  0  0  0
    0.0450    9.9370   -1.5240 C   0  0  2  0  0  0  0  0  0  0  0  0
    0.1580    8.4070   -1.6400 C   0  0  0  0  0  0  0  0  0  0  0  0
   -1.1170    7.6950   -1.9480 C   0  0  0  0  0  0  0  0  0  0  0  0
   -2.3520    8.2220   -1.8460 C   0  0  0  0  0  0  0  0  0  0  0  0
   -2.5610    9.6350   -1.2880 C   0  0  1  0  0  0  0  0  0  0  0  0
   -3.7160    9.6170   -0.2530 C   0  0  0  0  0  0  0  0  0  0  0  0
   -5.0000    9.0170   -0.8190 C   0  0  0  0  0  0  0  0  0  0  0  0
   -4.7650    7.5910   -1.3100 C   0  0  2  0  0  0  0  0  0  0  0  0
   -4.4740    6.7580   -0.1840 O   0  0  0  0  0  0  0  0  0  0  0  0
   -3.6160    7.4840   -2.3510 C   0  0  0  0  0  0  0  0  0  0  0  0
   -4.0590    8.1350   -3.6850 C   0  0  0  0  0  0  0  0  0  0  0  0
   -3.3890    5.9790   -2.6580 C   0  0  0  0  0  0  0  0  0  0  0  0
   -1.2600   10.3630   -0.7370 C   0  0  1  0  0  0  0  0  0  0  0  0
   -1.0260    9.9770    0.7550 C   0  0  0  0  0  0  0  0  0  0  0  0
   -1.4920   11.9200   -0.7620 C   0  0  0  0  0  0  0  0  0  0  0  0
   -1.1350   12.6550   -2.0680 C   0  0  0  0  0  0  0  0  0  0  0  0
    0.2640   12.2630   -2.5530 C   0  0  2  0  0  0  0  0  0  0  0  0
    1.2930   12.7230   -1.4660 C   0  0  0  0  0  0  0  0  0  0  0  0
    1.1574   14.2924   -1.7869 H   0  0  0  0  0  0  0  0  0  0  0  0
    1.4156   15.9084   -2.5274 H   0  0  0  0  0  0  0  0  0  0  0  0
   -0.2227   15.1718   -2.5274 H   0  0  0  0  0  0  0  0  0  0  0  0
    2.2402   14.3565   -4.1143 H   0  0  0  0  0  0  0  0  0  0  0  0
   -0.5969   14.7640   -5.1239 H   0  0  0  0  0  0  0  0  0  0  0  0
    0.6312   16.1090   -4.9671 H   0  0  0  0  0  0  0  0  0  0  0  0
    2.1407   14.5158   -6.3830 H   0  0  0  0  0  0  0  0  0  0  0  0
    0.5557   13.7773   -6.8613 H   0  0  0  0  0  0  0  0  0  0  0  0
    0.5438   16.4780   -6.6874 H   0  0  0  0  0  0  0  0  0  0  0  0
    3.2519   14.6637   -8.1262 H   0  0  0  0  0  0  0  0  0  0  0  0
    2.4227   14.1828   -9.6453 H   0  0  0  0  0  0  0  0  0  0  0  0
    3.5639   15.5700   -9.6453 H   0  0  0  0  0  0  0  0  0  0  0  0
    1.7365   18.0891   -8.6098 H   0  0  0  0  0  0  0  0  0  0  0  0
    2.6148   17.3901  -10.0122 H   0  0  0  0  0  0  0  0  0  0  0  0
    0.8193   17.4420  -10.0122 H   0  0  0  0  0  0  0  0  0  0  0  0
   -0.1434   12.8917   -4.6053 H   0  0  0  0  0  0  0  0  0  0  0  0
    1.7503   11.6315   -5.4203 H   0  0  0  0  0  0  0  0  0  0  0  0
    2.8342   12.3177   -4.1911 H   0  0  0  0  0  0  0  0  0  0  0  0
    1.7193    9.6863   -4.1403 H   0  0  0  0  0  0  0  0  0  0  0  0
    2.4686   10.4678   -2.7509 H   0  0  0  0  0  0  0  0  0  0  0  0
   -1.6340    9.8620   -3.5018 H   0  0  0  0  0  0  0  0  0  0  0  0
   -0.9930   11.1358   -4.5942 H   0  0  0  0  0  0  0  0  0  0  0  0
   -0.2552    9.4980   -4.5942 H   0  0  0  0  0  0  0  0  0  0  0  0
    0.9031   10.2544   -0.9133 H   0  0  0  0  0  0  0  0  0  0  0  0
    0.8766    8.1790   -2.4410 H   0  0  0  0  0  0  0  0  0  0  0  0
    0.4745    8.0493   -0.6491 H   0  0  0  0  0  0  0  0  0  0  0  0
   -1.0415    6.6513   -2.2871 H   0  0  0  0  0  0  0  0  0  0  0  0
   -2.8388   10.2629   -2.1474 H   0  0  0  0  0  0  0  0  0  0  0  0
   -3.4014    9.0206    0.6161 H   0  0  0  0  0  0  0  0  0  0  0  0
   -3.9296   10.6591    0.0269 H   0  0  0  0  0  0  0  0  0  0  0  0
   -5.7690    9.0049   -0.0326 H   0  0  0  0  0  0  0  0  0  0  0  0
   -5.3298    9.6316   -1.6696 H   0  0  0  0  0  0  0  0  0  0  0  0
   -5.6821    7.2618   -1.8204 H   0  0  0  0  0  0  0  0  0  0  0  0
   -3.5070    6.6990   -0.1040 H   0  0  0  0  0  0  0  0  0  0  0  0
   -4.6663    9.0275   -3.4736 H   0  0  0  0  0  0  0  0  0  0  0  0
   -3.1701    8.4252   -4.2644 H   0  0  0  0  0  0  0  0  0  0  0  0
   -4.6552    7.4146   -4.2644 H   0  0  0  0  0  0  0  0  0  0  0  0
   -3.3048    5.4208   -1.7139 H   0  0  0  0  0  0  0  0  0  0  0  0
   -4.2388    5.5910   -3.2388 H   0  0  0  0  0  0  0  0  0  0  0  0
   -2.4626    5.8589   -3.2388 H   0  0  0  0  0  0  0  0  0  0  0  0
   -1.4856   10.7351    1.4063 H   0  0  0  0  0  0  0  0  0  0  0  0
   -1.4817    8.9962    0.9558 H   0  0  0  0  0  0  0  0  0  0  0  0
    0.0544    9.9274    0.9558 H   0  0  0  0  0  0  0  0  0  0  0  0
   -2.5579   12.1008   -0.5591 H   0  0  0  0  0  0  0  0  0  0  0  0
   -0.8034   12.3256   -0.0062 H   0  0  0  0  0  0  0  0  0  0  0  0
   -1.8710   12.3916   -2.8419 H   0  0  0  0  0  0  0  0  0  0  0  0
   -1.1489   13.7380   -1.8760 H   0  0  0  0  0  0  0  0  0  0  0  0
    0.8767   12.5369   -0.4650 H   0  0  0  0  0  0  0  0  0  0  0  0
    2.2291   12.1577   -1.5847 H   0  0  0  0  0  0  0  0  0  0  0  0
    1.4960   13.7976   -1.5847 H   0  0  0  0  0  0  0  0  0  0  0  0
  1  2  1  0
  2  3  1  0
  3  4  1  0
  4  5  1  0
  5  6  1  0
  6  7  1  0
  7  8  1  0
  7  9  1  0
  2 10  1  0
 10 11  1  0
 11 12  1  0
 12 13  1  0
 13 14  1  6
 13 15  1  0
 15 16  1  0
 16 17  1  0
 17 18  2  0
 18 19  1  0
 19 20  1  0
 20 21  1  0
 21 22  1  0
 22 23  1  0
 22 24  1  0
 24 25  1  0
 24 26  1  0
 19 27  1  0
 27 28  1  1
 27 29  1  0
 29 30  1  0
 30 31  1  0
 31 32  1  1
  7  5  1  0
 31 10  1  0
 31 13  1  0
 27 15  1  0
 24 18  1  0
  1 33  1  0
  1 34  1  0
  1 35  1  0
  2 36  1  6
  3 37  1  0
  3 38  1  0
  4 39  1  0
  4 40  1  0
  5 41  1  1
  8 42  1  0
  8 43  1  0
  8 44  1  0
  9 45  1  0
  9 46  1  0
  9 47  1  0
 10 48  1  6
 11 49  1  0
 11 50  1  0
 12 51  1  0
 12 52  1  0
 14 53  1  0
 14 54  1  0
 14 55  1  0
 15 56  1  1
 16 57  1  0
 16 58  1  0
 17 59  1  0
 19 60  1  6
 20 61  1  0
 20 62  1  0
 21 63  1  0
 21 64  1  0
 22 65  1  6
 23 66  1  0
 25 67  1  0
 25 68  1  0
 25 69  1  0
 26 70  1  0
 26 71  1  0
 26 72  1  0
 28 73  1  0
 28 74  1  0
 28 75  1  0
 29 76  1  0
 29 77  1  0
 30 78  1  0
 30 79  1  0
 32 80  1  0
 32 81  1  0
 32 82  1  0
M  END
>  <meeko>  (9) 
{"is_sidechain": [false], "intermolecular_energy": 2.731, "internal_energy": -0.839}

$$$$
EPH_relaxed_0001_pdb2pqr_Repair_341_r2_0001_out
     RDKit          3D

 82 86  0  0  0  0  0  0  0  0999 V2000
   -4.5330    7.0600   -2.9180 C   0  0  0  0  0  0  0  0  0  0  0  0
   -4.8690    7.5930   -1.5220 C   0  0  2  0  0  0  0  0  0  0  0  0
   -6.3700    7.9060   -1.3660 C   0  0  0  0  0  0  0  0  0  0  0  0
   -7.2500    6.6590   -1.2430 C   0  0  0  0  0  0  0  0  0  0  0  0
   -8.3050    6.8260   -0.1920 C   0  0  2  0  0  0  0  0  0  0  0  0
   -9.3860    5.8880   -0.2750 O   0  0  0  0  0  0  0  0  0  0  0  0
   -9.7250    7.2670   -0.4960 C   0  0  0  0  0  0  0  0  0  0  0  0
  -10.1670    7.5680   -1.8930 C   0  0  0  0  0  0  0  0  0  0  0  0
  -10.5380    7.8720    0.6060 C   0  0  0  0  0  0  0  0  0  0  0  0
   -4.0430    8.8400   -1.2300 C   0  0  1  0  0  0  0  0  0  0  0  0
   -4.4700    9.5440    0.0860 C   0  0  0  0  0  0  0  0  0  0  0  0
   -3.1810   10.1290    0.7190 C   0  0  0  0  0  0  0  0  0  0  0  0
   -2.1190   10.0350   -0.4020 C   0  0  1  0  0  0  0  0  0  0  0  0
   -2.3850   11.2750   -1.3120 C   0  0  0  0  0  0  0  0  0  0  0  0
   -0.6280    9.9690    0.0640 C   0  0  2  0  0  0  0  0  0  0  0  0
   -0.1290   11.2060    0.8300 C   0  0  0  0  0  0  0  0  0  0  0  0
    0.4750   12.2790   -0.0140 C   0  0  0  0  0  0  0  0  0  0  0  0
    0.8710   12.1390   -1.2930 C   0  0  0  0  0  0  0  0  0  0  0  0
    0.8170   10.7720   -1.9880 C   0  0  1  0  0  0  0  0  0  0  0  0
    2.1510   10.5190   -2.7370 C   0  0  0  0  0  0  0  0  0  0  0  0
    2.5060   11.6490   -3.6990 C   0  0  0  0  0  0  0  0  0  0  0  0
    2.6080   12.9810   -2.9600 C   0  0  2  0  0  0  0  0  0  0  0  0
    3.7300   12.9320   -2.0730 O   0  0  0  0  0  0  0  0  0  0  0  0
    1.3240   13.3390   -2.1610 C   0  0  0  0  0  0  0  0  0  0  0  0
    0.1790   13.6870   -3.1430 C   0  0  0  0  0  0  0  0  0  0  0  0
    1.6100   14.6320   -1.3510 C   0  0  0  0  0  0  0  0  0  0  0  0
    0.3880    9.5450   -1.0730 C   0  0  1  0  0  0  0  0  0  0  0  0
    1.6400    8.9550   -0.3550 C   0  0  0  0  0  0  0  0  0  0  0  0
   -0.1820    8.3970   -1.9870 C   0  0  0  0  0  0  0  0  0  0  0  0
   -1.6870    8.4510   -2.3140 C   0  0  0  0  0  0  0  0  0  0  0  0
   -2.5170    8.6550   -1.0420 C   0  0  2  0  0  0  0  0  0  0  0  0
   -2.2870    7.4120   -0.1170 C   0  0  0  0  0  0  0  0  0  0  0  0
   -3.9485    6.1328   -2.8256 H   0  0  0  0  0  0  0  0  0  0  0  0
   -5.4644    6.8533   -3.4655 H   0  0  0  0  0  0  0  0  0  0  0  0
   -3.9448    7.8112   -3.4655 H   0  0  0  0  0  0  0  0  0  0  0  0
   -4.6200    6.8040   -0.7971 H   0  0  0  0  0  0  0  0  0  0  0  0
   -6.5050    8.5168   -0.4612 H   0  0  0  0  0  0  0  0  0  0  0  0
   -6.6849    8.4325   -2.2791 H   0  0  0  0  0  0  0  0  0  0  0  0
   -7.7377    6.4701   -2.2107 H   0  0  0  0  0  0  0  0  0  0  0  0
   -6.6083    5.8139   -0.9531 H   0  0  0  0  0  0  0  0  0  0  0  0
   -7.5600    7.1851    0.5333 H   0  0  0  0  0  0  0  0  0  0  0  0
  -11.0759    8.1870   -1.8647 H   0  0  0  0  0  0  0  0  0  0  0  0
   -9.3695    8.1116   -2.4208 H   0  0  0  0  0  0  0  0  0  0  0  0
  -10.3806    6.6268   -2.4208 H   0  0  0  0  0  0  0  0  0  0  0  0
  -10.1247    7.5644    1.5779 H   0  0  0  0  0  0  0  0  0  0  0  0
  -10.5071    8.9686    0.5249 H   0  0  0  0  0  0  0  0  0  0  0  0
  -11.5795    7.5275    0.5249 H   0  0  0  0  0  0  0  0  0  0  0  0
   -4.2418    9.4119   -2.1484 H   0  0  0  0  0  0  0  0  0  0  0  0
   -5.1854   10.3510   -0.1310 H   0  0  0  0  0  0  0  0  0  0  0  0
   -4.9606    8.8368    0.7710 H   0  0  0  0  0  0  0  0  0  0  0  0
   -3.3365   11.1755    1.0199 H   0  0  0  0  0  0  0  0  0  0  0  0
   -2.8786    9.5865    1.6269 H   0  0  0  0  0  0  0  0  0  0  0  0
   -2.5743   12.1574   -0.6831 H   0  0  0  0  0  0  0  0  0  0  0  0
   -1.5059   11.4591   -1.9471 H   0  0  0  0  0  0  0  0  0  0  0  0
   -3.2622   11.0823   -1.9471 H   0  0  0  0  0  0  0  0  0  0  0  0
   -0.6461    9.1499    0.7980 H   0  0  0  0  0  0  0  0  0  0  0  0
   -0.9841   11.6392    1.3696 H   0  0  0  0  0  0  0  0  0  0  0  0
    0.6752   10.8503    1.4908 H   0  0  0  0  0  0  0  0  0  0  0  0
    0.6078   13.2682    0.4485 H   0  0  0  0  0  0  0  0  0  0  0  0
   -0.0109   10.8305   -2.7099 H   0  0  0  0  0  0  0  0  0  0  0  0
    2.9580   10.4202   -1.9961 H   0  0  0  0  0  0  0  0  0  0  0  0
    2.0314    9.6007   -3.3306 H   0  0  0  0  0  0  0  0  0  0  0  0
    3.4722   11.4264   -4.1753 H   0  0  0  0  0  0  0  0  0  0  0  0
    1.7131   11.7274   -4.4574 H   0  0  0  0  0  0  0  0  0  0  0  0
    2.7350   13.7689   -3.7170 H   0  0  0  0  0  0  0  0  0  0  0  0
    4.3340   13.6520   -2.3220 H   0  0  0  0  0  0  0  0  0  0  0  0
   -0.7216   13.9607   -2.5739 H   0  0  0  0  0  0  0  0  0  0  0  0
    0.4837   14.5331   -3.7765 H   0  0  0  0  0  0  0  0  0  0  0  0
   -0.0387   12.8144   -3.7765 H   0  0  0  0  0  0  0  0  0  0  0  0
    1.5607   14.4090   -0.2750 H   0  0  0  0  0  0  0  0  0  0  0  0
    2.6129   15.0076   -1.6020 H   0  0  0  0  0  0  0  0  0  0  0  0
    0.8590   15.3956   -1.6020 H   0  0  0  0  0  0  0  0  0  0  0  0
    1.5024    9.0198    0.7344 H   0  0  0  0  0  0  0  0  0  0  0  0
    1.7676    7.9020   -0.6464 H   0  0  0  0  0  0  0  0  0  0  0  0
    2.5333    9.5269   -0.6464 H   0  0  0  0  0  0  0  0  0  0  0  0
    0.3667    8.4270   -2.9399 H   0  0  0  0  0  0  0  0  0  0  0  0
   -0.0470    7.4729   -1.4058 H   0  0  0  0  0  0  0  0  0  0  0  0
   -1.8756    9.2861   -3.0047 H   0  0  0  0  0  0  0  0  0  0  0  0
   -1.9805    7.4965   -2.7753 H   0  0  0  0  0  0  0  0  0  0  0  0
   -2.3446    7.7232    0.9365 H   0  0  0  0  0  0  0  0  0  0  0  0
   -3.0606    6.6565   -0.3189 H   0  0  0  0  0  0  0  0  0  0  0  0
   -1.2943    6.9833   -0.3189 H   0  0  0  0  0  0  0  0  0  0  0  0
  1  2  1  0
  2  3  1  0
  3  4  1  0
  4  5  1  0
  5  6  1  0
  6  7  1  0
  7  8  1  0
  7  9  1  0
  2 10  1  0
 10 11  1  0
 11 12  1  0
 12 13  1  0
 13 14  1  6
 13 15  1  0
 15 16  1  0
 16 17  1  0
 17 18  2  0
 18 19  1  0
 19 20  1  0
 20 21  1  0
 21 22  1  0
 22 23  1  0
 22 24  1  0
 24 25  1  0
 24 26  1  0
 19 27  1  0
 27 28  1  1
 27 29  1  0
 29 30  1  0
 30 31  1  0
 31 32  1  1
  7  5  1  0
 31 10  1  0
 31 13  1  0
 27 15  1  0
 24 18  1  0
  1 33  1  0
  1 34  1  0
  1 35  1  0
  2 36  1  1
  3 37  1  0
  3 38  1  0
  4 39  1  0
  4 40  1  0
  5 41  1  1
  8 42  1  0
  8 43  1  0
  8 44  1  0
  9 45  1  0
  9 46  1  0
  9 47  1  0
 10 48  1  6
 11 49  1  0
 11 50  1  0
 12 51  1  0
 12 52  1  0
 14 53  1  0
 14 54  1  0
 14 55  1  0
 15 56  1  1
 16 57  1  0
 16 58  1  0
 17 59  1  0
 19 60  1  6
 20 61  1  0
 20 62  1  0
 21 63  1  0
 21 64  1  0
 22 65  1  6
 23 66  1  0
 25 67  1  0
 25 68  1  0
 25 69  1  0
 26 70  1  0
 26 71  1  0
 26 72  1  0
 28 73  1  0
 28 74  1  0
 28 75  1  0
 29 76  1  0
 29 77  1  0
 30 78  1  0
 30 79  1  0
 32 80  1  0
 32 81  1  0
 32 82  1  0
M  END
>  <meeko>  (10) 
{"is_sidechain": [false], "intermolecular_energy": 2.731, "internal_energy": -0.839}

$$$$
EPH_relaxed_0001_pdb2pqr_Repair_341_r2_0001_out
     RDKit          3D

 82 86  0  0  0  0  0  0  0  0999 V2000
   -2.4820    7.7730   -0.1330 C   0  0  0  0  0  0  0  0  0  0  0  0
   -3.0810    9.1820   -0.1020 C   0  0  2  0  0  0  0  0  0  0  0  0
   -4.5750    9.1860   -0.4840 C   0  0  0  0  0  0  0  0  0  0  0  0
   -5.2140    7.7950   -0.4850 C   0  0  0  0  0  0  0  0  0  0  0  0
   -5.9130    7.5060   -1.7780 C   0  0  2  0  0  0  0  0  0  0  0  0
   -6.8650    8.5010   -2.1790 O   0  0  0  0  0  0  0  0  0  0  0  0
   -7.3960    7.2000   -1.8780 C   0  0  0  0  0  0  0  0  0  0  0  0
   -8.2690    7.1660   -0.6630 C   0  0  0  0  0  0  0  0  0  0  0  0
   -7.8950    6.4600   -3.0790 C   0  0  0  0  0  0  0  0  0  0  0  0
   -2.3010   10.0980   -1.0370 C   0  0  1  0  0  0  0  0  0  0  0  0
   -2.9330   11.5110   -1.1520 C   0  0  0  0  0  0  0  0  0  0  0  0
   -1.7600   12.5140   -1.3070 C   0  0  0  0  0  0  0  0  0  0  0  0
   -0.5280   11.6290   -1.6090 C   0  0  1  0  0  0  0  0  0  0  0  0
   -0.6250   11.3130   -3.1340 C   0  0  0  0  0  0  0  0  0  0  0  0
    0.8650   12.2320   -1.2320 C   0  0  2  0  0  0  0  0  0  0  0  0
    1.2430   13.5200   -1.9840 C   0  0  0  0  0  0  0  0  0  0  0  0
    1.9910   13.3160   -3.2600 C   0  0  0  0  0  0  0  0  0  0  0  0
    2.5920   12.1740   -3.6410 C   0  0  0  0  0  0  0  0  0  0  0  0
    2.6390   10.9590   -2.7060 C   0  0  1  0  0  0  0  0  0  0  0  0
    4.0760   10.3760   -2.6850 C   0  0  0  0  0  0  0  0  0  0  0  0
    4.5980   10.0570   -4.0820 C   0  0  0  0  0  0  0  0  0  0  0  0
    4.5910   11.3020   -4.9650 C   0  0  2  0  0  0  0  0  0  0  0  0
    5.5490   12.2350   -4.4540 O   0  0  0  0  0  0  0  0  0  0  0  0
    3.1970   11.9820   -5.0540 C   0  0  0  0  0  0  0  0  0  0  0  0
    2.2350   11.0910   -5.8770 C   0  0  0  0  0  0  0  0  0  0  0  0
    3.3590   13.3020   -5.8560 C   0  0  0  0  0  0  0  0  0  0  0  0
    2.0500   11.1840   -1.2470 C   0  0  1  0  0  0  0  0  0  0  0  0
    3.1580   11.7520   -0.3080 C   0  0  0  0  0  0  0  0  0  0  0  0
    1.6270    9.7930   -0.6430 C   0  0  0  0  0  0  0  0  0  0  0  0
    0.1980    9.3070   -0.9520 C   0  0  0  0  0  0  0  0  0  0  0  0
   -0.8290   10.4080   -0.6660 C   0  0  2  0  0  0  0  0  0  0  0  0
   -0.7700   10.7310    0.8660 C   0  0  0  0  0  0  0  0  0  0  0  0
   -2.3304    7.4163    0.8965 H   0  0  0  0  0  0  0  0  0  0  0  0
   -3.1692    7.0939   -0.6589 H   0  0  0  0  0  0  0  0  0  0  0  0
   -1.5161    7.7967   -0.6589 H   0  0  0  0  0  0  0  0  0  0  0  0
   -3.0040    9.5526    0.9308 H   0  0  0  0  0  0  0  0  0  0  0  0
   -5.1161    9.8161    0.2372 H   0  0  0  0  0  0  0  0  0  0  0  0
   -4.6427    9.5714   -1.5120 H   0  0  0  0  0  0  0  0  0  0  0  0
   -4.4278    7.0417   -0.3289 H   0  0  0  0  0  0  0  0  0  0  0  0
   -5.9600    7.7603    0.3227 H   0  0  0  0  0  0  0  0  0  0  0  0
   -5.0250    6.9880   -2.1694 H   0  0  0  0  0  0  0  0  0  0  0  0
   -7.6415    7.1904    0.2401 H   0  0  0  0  0  0  0  0  0  0  0  0
   -8.9385    8.0387   -0.6680 H   0  0  0  0  0  0  0  0  0  0  0  0
   -8.8686    6.2438   -0.6680 H   0  0  0  0  0  0  0  0  0  0  0  0
   -8.4827    5.5885   -2.7547 H   0  0  0  0  0  0  0  0  0  0  0  0
   -8.5292    7.1259   -3.6826 H   0  0  0  0  0  0  0  0  0  0  0  0
   -7.0399    6.1216   -3.6826 H   0  0  0  0  0  0  0  0  0  0  0  0
   -2.3376    9.4964   -1.9572 H   0  0  0  0  0  0  0  0  0  0  0  0
   -3.5926   11.5606   -2.0309 H   0  0  0  0  0  0  0  0  0  0  0  0
   -3.5394   11.7461   -0.2648 H   0  0  0  0  0  0  0  0  0  0  0  0
   -1.9512   13.2100   -2.1371 H   0  0  0  0  0  0  0  0  0  0  0  0
   -1.6190   13.1333   -0.4089 H   0  0  0  0  0  0  0  0  0  0  0  0
   -0.9452   10.2698   -3.2726 H   0  0  0  0  0  0  0  0  0  0  0  0
   -1.3577   11.9868   -3.6022 H   0  0  0  0  0  0  0  0  0  0  0  0
    0.3595   11.4597   -3.6022 H   0  0  0  0  0  0  0  0  0  0  0  0
    0.7174   12.5310   -0.1838 H   0  0  0  0  0  0  0  0  0  0  0  0
    0.3150   14.0627   -2.2168 H   0  0  0  0  0  0  0  0  0  0  0  0
    1.9213   14.0738   -1.3182 H   0  0  0  0  0  0  0  0  0  0  0  0
    2.0563   14.1724   -3.9473 H   0  0  0  0  0  0  0  0  0  0  0  0
    1.9437   10.2207   -3.1321 H   0  0  0  0  0  0  0  0  0  0  0  0
    4.7477   11.1105   -2.2168 H   0  0  0  0  0  0  0  0  0  0  0  0
    4.0462    9.4347   -2.1166 H   0  0  0  0  0  0  0  0  0  0  0  0
    5.6274    9.6772   -4.0035 H   0  0  0  0  0  0  0  0  0  0  0  0
    3.9422    9.3003   -4.5373 H   0  0  0  0  0  0  0  0  0  0  0  0
    4.8507   10.9839   -5.9855 H   0  0  0  0  0  0  0  0  0  0  0  0
    6.0900   11.7690   -3.7930 H   0  0  0  0  0  0  0  0  0  0  0  0
    1.6027   10.5053   -5.1935 H   0  0  0  0  0  0  0  0  0  0  0  0
    1.5991   11.7262   -6.5111 H   0  0  0  0  0  0  0  0  0  0  0  0
    2.8197   10.4084   -6.5111 H   0  0  0  0  0  0  0  0  0  0  0  0
    3.4625   14.1452   -5.1572 H   0  0  0  0  0  0  0  0  0  0  0  0
    4.2561   13.2385   -6.4894 H   0  0  0  0  0  0  0  0  0  0  0  0
    2.4732   13.4573   -6.4894 H   0  0  0  0  0  0  0  0  0  0  0  0
    2.8628   11.6007    0.7408 H   0  0  0  0  0  0  0  0  0  0  0  0
    4.1061   11.2287   -0.5012 H   0  0  0  0  0  0  0  0  0  0  0  0
    3.2866   12.8272   -0.5012 H   0  0  0  0  0  0  0  0  0  0  0  0
    2.3264    9.0364   -1.0283 H   0  0  0  0  0  0  0  0  0  0  0  0
    1.6539    9.9327    0.4478 H   0  0  0  0  0  0  0  0  0  0  0  0
    0.1358    9.0235   -2.0130 H   0  0  0  0  0  0  0  0  0  0  0  0
   -0.0256    8.4429   -0.3091 H   0  0  0  0  0  0  0  0  0  0  0  0
   -0.9384    9.8090    1.4419 H   0  0  0  0  0  0  0  0  0  0  0  0
    0.2184   11.1440    1.1159 H   0  0  0  0  0  0  0  0  0  0  0  0
   -1.5486   11.4668    1.1159 H   0  0  0  0  0  0  0  0  0  0  0  0
  1  2  1  0
  2  3  1  0
  3  4  1  0
  4  5  1  0
  5  6  1  0
  6  7  1  0
  7  8  1  0
  7  9  1  0
  2 10  1  0
 10 11  1  0
 11 12  1  0
 12 13  1  0
 13 14  1  6
 13 15  1  0
 15 16  1  0
 16 17  1  0
 17 18  2  0
 18 19  1  0
 19 20  1  0
 20 21  1  0
 21 22  1  0
 22 23  1  0
 22 24  1  0
 24 25  1  0
 24 26  1  0
 19 27  1  0
 27 28  1  1
 27 29  1  0
 29 30  1  0
 30 31  1  0
 31 32  1  1
  7  5  1  0
 31 10  1  0
 31 13  1  0
 27 15  1  0
 24 18  1  0
  1 33  1  0
  1 34  1  0
  1 35  1  0
  2 36  1  1
  3 37  1  0
  3 38  1  0
  4 39  1  0
  4 40  1  0
  5 41  1  6
  8 42  1  0
  8 43  1  0
  8 44  1  0
  9 45  1  0
  9 46  1  0
  9 47  1  0
 10 48  1  6
 11 49  1  0
 11 50  1  0
 12 51  1  0
 12 52  1  0
 14 53  1  0
 14 54  1  0
 14 55  1  0
 15 56  1  1
 16 57  1  0
 16 58  1  0
 17 59  1  0
 19 60  1  6
 20 61  1  0
 20 62  1  0
 21 63  1  0
 21 64  1  0
 22 65  1  6
 23 66  1  0
 25 67  1  0
 25 68  1  0
 25 69  1  0
 26 70  1  0
 26 71  1  0
 26 72  1  0
 28 73  1  0
 28 74  1  0
 28 75  1  0
 29 76  1  0
 29 77  1  0
 30 78  1  0
 30 79  1  0
 32 80  1  0
 32 81  1  0
 32 82  1  0
M  END
>  <meeko>  (11) 
{"is_sidechain": [false], "intermolecular_energy": 2.731, "internal_energy": -0.839}

$$$$
EPH_relaxed_0001_pdb2pqr_Repair_341_r2_0001_out
     RDKit          3D

 82 86  0  0  0  0  0  0  0  0999 V2000
    3.3800   15.8960    0.3380 C   0  0  0  0  0  0  0  0  0  0  0  0
    2.2830   16.5210   -0.5280 C   0  0  2  0  0  0  0  0  0  0  0  0
    1.4140   17.5170    0.2640 C   0  0  0  0  0  0  0  0  0  0  0  0
   -0.0900   17.3360    0.0400 C   0  0  0  0  0  0  0  0  0  0  0  0
   -0.7730   18.6440   -0.2240 C   0  0  2  0  0  0  0  0  0  0  0  0
   -0.8700   19.5090    0.9150 O   0  0  0  0  0  0  0  0  0  0  0  0
   -2.1120   19.0250    0.3780 C   0  0  0  0  0  0  0  0  0  0  0  0
   -2.8490   18.0970    1.2920 C   0  0  0  0  0  0  0  0  0  0  0  0
   -2.9280   20.0800   -0.3010 C   0  0  0  0  0  0  0  0  0  0  0  0
    1.4070   15.4260   -1.1270 C   0  0  1  0  0  0  0  0  0  0  0  0
    0.8840   15.7860   -2.5430 C   0  0  0  0  0  0  0  0  0  0  0  0
    0.8300   14.4630   -3.3490 C   0  0  0  0  0  0  0  0  0  0  0  0
    1.0000   13.3520   -2.2870 C   0  0  1  0  0  0  0  0  0  0  0  0
   -0.4190   13.1750   -1.6610 C   0  0  0  0  0  0  0  0  0  0  0  0
    1.5790   11.9920   -2.7970 C   0  0  2  0  0  0  0  0  0  0  0  0
    0.7130   11.2640   -3.8400 C   0  0  0  0  0  0  0  0  0  0  0  0
   -0.2870   10.3070   -3.2810 C   0  0  0  0  0  0  0  0  0  0  0  0
   -0.2950    9.8290   -2.0230 C   0  0  0  0  0  0  0  0  0  0  0  0
    0.8340   10.1740   -1.0430 C   0  0  1  0  0  0  0  0  0  0  0  0
    1.3040    8.8840   -0.3210 C   0  0  0  0  0  0  0  0  0  0  0  0
    0.1560    8.1370    0.3510 C   0  0  0  0  0  0  0  0  0  0  0  0
   -0.9190    7.7600   -0.6660 C   0  0  2  0  0  0  0  0  0  0  0  0
   -0.3770    6.7960   -1.5730 O   0  0  0  0  0  0  0  0  0  0  0  0
   -1.4620    8.9790   -1.4630 C   0  0  0  0  0  0  0  0  0  0  0  0
   -2.3110    9.8760   -0.5280 C   0  0  0  0  0  0  0  0  0  0  0  0
   -2.4330    8.4440   -2.5500 C   0  0  0  0  0  0  0  0  0  0  0  0
    2.0420   11.0120   -1.6440 C   0  0  1  0  0  0  0  0  0  0  0  0
    3.0960   10.0500   -2.2740 C   0  0  0  0  0  0  0  0  0  0  0  0
    2.7760   11.7690   -0.4740 C   0  0  0  0  0  0  0  0  0  0  0  0
    2.2300   13.1590   -0.0970 C   0  0  0  0  0  0  0  0  0  0  0  0
    2.0540   14.0350   -1.3410 C   0  0  2  0  0  0  0  0  0  0  0  0
    3.4680   14.2480   -1.9810 C   0  0  0  0  0  0  0  0  0  0  0  0
    3.1330   16.0367    1.4006 H   0  0  0  0  0  0  0  0  0  0  0  0
    3.4530   14.8207    0.1178 H   0  0  0  0  0  0  0  0  0  0  0  0
    4.3422   16.3815    0.1178 H   0  0  0  0  0  0  0  0  0  0  0  0
    2.7777   17.0838   -1.3333 H   0  0  0  0  0  0  0  0  0  0  0  0
    1.6238   17.3849    1.3357 H   0  0  0  0  0  0  0  0  0  0  0  0
    1.6731   18.5245   -0.0936 H   0  0  0  0  0  0  0  0  0  0  0  0
   -0.2444   16.6726   -0.8237 H   0  0  0  0  0  0  0  0  0  0  0  0
   -0.5227   16.9016    0.9533 H   0  0  0  0  0  0  0  0  0  0  0  0
   -0.3987   18.6576   -1.2583 H   0  0  0  0  0  0  0  0  0  0  0  0
   -2.6357   18.3656    2.3371 H   0  0  0  0  0  0  0  0  0  0  0  0
   -3.9298   18.1802    1.1053 H   0  0  0  0  0  0  0  0  0  0  0  0
   -2.5232   17.0631    1.1053 H   0  0  0  0  0  0  0  0  0  0  0  0
   -3.4158   20.7106    0.4569 H   0  0  0  0  0  0  0  0  0  0  0  0
   -2.2735   20.7019   -0.9295 H   0  0  0  0  0  0  0  0  0  0  0  0
   -3.6944   19.6029   -0.9295 H   0  0  0  0  0  0  0  0  0  0  0  0
    0.6320   15.3644   -0.3488 H   0  0  0  0  0  0  0  0  0  0  0  0
   -0.1204   16.2292   -2.4746 H   0  0  0  0  0  0  0  0  0  0  0  0
    1.5411   16.5201   -3.0321 H   0  0  0  0  0  0  0  0  0  0  0  0
   -0.1360   14.3620   -3.8654 H   0  0  0  0  0  0  0  0  0  0  0  0
    1.6051   14.4173   -4.1282 H   0  0  0  0  0  0  0  0  0  0  0  0
   -0.3396   13.1849   -0.5639 H   0  0  0  0  0  0  0  0  0  0  0  0
   -1.0698   13.9989   -1.9890 H   0  0  0  0  0  0  0  0  0  0  0  0
   -0.8475   12.2164   -1.9890 H   0  0  0  0  0  0  0  0  0  0  0  0
    2.4871   12.3076   -3.3315 H   0  0  0  0  0  0  0  0  0  0  0  0
    0.1691   12.0238   -4.4204 H   0  0  0  0  0  0  0  0  0  0  0  0
    1.4065   10.6614   -4.4448 H   0  0  0  0  0  0  0  0  0  0  0  0
   -1.0855    9.9631   -3.9549 H   0  0  0  0  0  0  0  0  0  0  0  0
    0.4005   10.8736   -0.3132 H   0  0  0  0  0  0  0  0  0  0  0  0
    1.7734    8.2178   -1.0598 H   0  0  0  0  0  0  0  0  0  0  0  0
    2.0136    9.1816    0.4651 H   0  0  0  0  0  0  0  0  0  0  0  0
    0.5469    7.2210    0.8180 H   0  0  0  0  0  0  0  0  0  0  0  0
   -0.2937    8.7938    1.1102 H   0  0  0  0  0  0  0  0  0  0  0  0
   -1.7710    7.3452   -0.1074 H   0  0  0  0  0  0  0  0  0  0  0  0
    0.5830    6.7540   -1.4200 H   0  0  0  0  0  0  0  0  0  0  0  0
   -2.0817    9.6337    0.5202 H   0  0  0  0  0  0  0  0  0  0  0  0
   -2.0748   10.9330   -0.7201 H   0  0  0  0  0  0  0  0  0  0  0  0
   -3.3794    9.6982   -0.7201 H   0  0  0  0  0  0  0  0  0  0  0  0
   -3.2982    7.9673   -2.0662 H   0  0  0  0  0  0  0  0  0  0  0  0
   -2.7778    9.2795   -3.1770 H   0  0  0  0  0  0  0  0  0  0  0  0
   -1.9109    7.7062   -3.1770 H   0  0  0  0  0  0  0  0  0  0  0  0
    3.6531    9.5415   -1.4733 H   0  0  0  0  0  0  0  0  0  0  0  0
    2.5836    9.3017   -2.8965 H   0  0  0  0  0  0  0  0  0  0  0  0
    3.7945   10.6284   -2.8965 H   0  0  0  0  0  0  0  0  0  0  0  0
    2.7170   11.1338    0.4222 H   0  0  0  0  0  0  0  0  0  0  0  0
    3.7961   11.9506   -0.8435 H   0  0  0  0  0  0  0  0  0  0  0  0
    1.2560   13.0402    0.4002 H   0  0  0  0  0  0  0  0  0  0  0  0
    2.9494   13.6474    0.5768 H   0  0  0  0  0  0  0  0  0  0  0  0
    4.2179   14.3610   -1.1842 H   0  0  0  0  0  0  0  0  0  0  0  0
    3.7233   13.3782   -2.6041 H   0  0  0  0  0  0  0  0  0  0  0  0
    3.4557   15.1544   -2.6041 H   0  0  0  0  0  0  0  0  0  0  0  0
  1  2  1  0
  2  3  1  0
  3  4  1  0
  4  5  1  0
  5  6  1  0
  6  7  1  0
  7  8  1  0
  7  9  1  0
  2 10  1  0
 10 11  1  0
 11 12  1  0
 12 13  1  0
 13 14  1  1
 13 15  1  0
 15 16  1  0
 16 17  1  0
 17 18  2  0
 18 19  1  0
 19 20  1  0
 20 21  1  0
 21 22  1  0
 22 23  1  0
 22 24  1  0
 24 25  1  0
 24 26  1  0
 19 27  1  0
 27 28  1  6
 27 29  1  0
 29 30  1  0
 30 31  1  0
 31 32  1  6
  7  5  1  0
 31 10  1  0
 31 13  1  0
 27 15  1  0
 24 18  1  0
  1 33  1  0
  1 34  1  0
  1 35  1  0
  2 36  1  6
  3 37  1  0
  3 38  1  0
  4 39  1  0
  4 40  1  0
  5 41  1  6
  8 42  1  0
  8 43  1  0
  8 44  1  0
  9 45  1  0
  9 46  1  0
  9 47  1  0
 10 48  1  1
 11 49  1  0
 11 50  1  0
 12 51  1  0
 12 52  1  0
 14 53  1  0
 14 54  1  0
 14 55  1  0
 15 56  1  6
 16 57  1  0
 16 58  1  0
 17 59  1  0
 19 60  1  1
 20 61  1  0
 20 62  1  0
 21 63  1  0
 21 64  1  0
 22 65  1  1
 23 66  1  0
 25 67  1  0
 25 68  1  0
 25 69  1  0
 26 70  1  0
 26 71  1  0
 26 72  1  0
 28 73  1  0
 28 74  1  0
 28 75  1  0
 29 76  1  0
 29 77  1  0
 30 78  1  0
 30 79  1  0
 32 80  1  0
 32 81  1  0
 32 82  1  0
M  END
>  <meeko>  (12) 
{"is_sidechain": [false], "intermolecular_energy": 2.731, "internal_energy": -0.839}

$$$$
EPH_relaxed_0001_pdb2pqr_Repair_341_r2_0001_out
     RDKit          3D

 82 86  0  0  0  0  0  0  0  0999 V2000
   -3.8310    6.7900   -2.9050 C   0  0  0  0  0  0  0  0  0  0  0  0
   -3.9930    7.1030   -1.4140 C   0  0  2  0  0  0  0  0  0  0  0  0
   -5.4630    7.0070   -0.9570 C   0  0  0  0  0  0  0  0  0  0  0  0
   -6.4740    7.2550   -2.0790 C   0  0  0  0  0  0  0  0  0  0  0  0
   -7.8540    7.4840   -1.5410 C   0  0  2  0  0  0  0  0  0  0  0  0
   -8.5930    6.2880   -1.2600 O   0  0  0  0  0  0  0  0  0  0  0  0
   -9.1180    7.1270   -2.3010 C   0  0  0  0  0  0  0  0  0  0  0  0
   -9.0620    6.5120   -3.6640 C   0  0  0  0  0  0  0  0  0  0  0  0
  -10.3940    7.8180   -1.9320 C   0  0  0  0  0  0  0  0  0  0  0  0
   -3.4430    8.4910   -1.1120 C   0  0  1  0  0  0  0  0  0  0  0  0
   -3.6780    8.9190    0.3620 C   0  0  0  0  0  0  0  0  0  0  0  0
   -2.4490    9.7650    0.7830 C   0  0  0  0  0  0  0  0  0  0  0  0
   -1.7150   10.0740   -0.5420 C   0  0  1  0  0  0  0  0  0  0  0  0
   -2.4910   11.2790   -1.1590 C   0  0  0  0  0  0  0  0  0  0  0  0
   -0.1830   10.3690   -0.4320 C   0  0  2  0  0  0  0  0  0  0  0  0
    0.1830   11.6120    0.3970 C   0  0  0  0  0  0  0  0  0  0  0  0
    0.2790   12.8870   -0.3740 C   0  0  0  0  0  0  0  0  0  0  0  0
    0.3600   12.9870   -1.7130 C   0  0  0  0  0  0  0  0  0  0  0  0
    0.4590   11.7330   -2.5920 C   0  0  1  0  0  0  0  0  0  0  0  0
    1.5810   11.9260   -3.6460 C   0  0  0  0  0  0  0  0  0  0  0  0
    1.4000   13.2000   -4.4660 C   0  0  0  0  0  0  0  0  0  0  0  0
    1.3640   14.4300   -3.5620 C   0  0  2  0  0  0  0  0  0  0  0  0
    2.6520   14.5980   -2.9610 O   0  0  0  0  0  0  0  0  0  0  0  0
    0.2780   14.3450   -2.4530 C   0  0  0  0  0  0  0  0  0  0  0  0
   -1.1280   14.4660   -3.0920 C   0  0  0  0  0  0  0  0  0  0  0  0
    0.4430   15.5800   -1.5270 C   0  0  0  0  0  0  0  0  0  0  0  0
    0.5820   10.3510   -1.8170 C   0  0  1  0  0  0  0  0  0  0  0  0
    2.0780   10.0530   -1.4950 C   0  0  0  0  0  0  0  0  0  0  0  0
    0.0900    9.1880   -2.7570 C   0  0  0  0  0  0  0  0  0  0  0  0
   -1.4160    8.8650   -2.7330 C   0  0  0  0  0  0  0  0  0  0  0  0
   -1.9200    8.7090   -1.2950 C   0  0  2  0  0  0  0  0  0  0  0  0
   -1.1730    7.4890   -0.6560 C   0  0  0  0  0  0  0  0  0  0  0  0
   -3.3283    5.8188   -3.0233 H   0  0  0  0  0  0  0  0  0  0  0  0
   -4.8218    6.7504   -3.3811 H   0  0  0  0  0  0  0  0  0  0  0  0
   -3.2265    7.5761   -3.3811 H   0  0  0  0  0  0  0  0  0  0  0  0
   -3.4232    6.3475   -0.8531 H   0  0  0  0  0  0  0  0  0  0  0  0
   -5.6352    5.9993   -0.5509 H   0  0  0  0  0  0  0  0  0  0  0  0
   -5.6178    7.7949   -0.2051 H   0  0  0  0  0  0  0  0  0  0  0  0
   -6.1623    8.1419   -2.6501 H   0  0  0  0  0  0  0  0  0  0  0  0
   -6.4999    6.3620   -2.7208 H   0  0  0  0  0  0  0  0  0  0  0  0
   -7.5307    8.4080   -1.0392 H   0  0  0  0  0  0  0  0  0  0  0  0
   -8.9626    5.4205   -3.5700 H   0  0  0  0  0  0  0  0  0  0  0  0
   -9.9856    6.7502   -4.2120 H   0  0  0  0  0  0  0  0  0  0  0  0
   -8.1967    6.9131   -4.2120 H   0  0  0  0  0  0  0  0  0  0  0  0
  -10.4817    7.8655   -0.8365 H   0  0  0  0  0  0  0  0  0  0  0  0
  -10.3912    8.8378   -2.3442 H   0  0  0  0  0  0  0  0  0  0  0  0
  -11.2465    7.2583   -2.3442 H   0  0  0  0  0  0  0  0  0  0  0  0
   -3.9989    9.0757   -1.8597 H   0  0  0  0  0  0  0  0  0  0  0  0
   -4.5962    9.5196    0.4403 H   0  0  0  0  0  0  0  0  0  0  0  0
   -3.7956    8.0412    1.0144 H   0  0  0  0  0  0  0  0  0  0  0  0
   -2.7684   10.6951    1.2759 H   0  0  0  0  0  0  0  0  0  0  0  0
   -1.8060    9.2368    1.5024 H   0  0  0  0  0  0  0  0  0  0  0  0
   -2.8954   11.9069   -0.3514 H   0  0  0  0  0  0  0  0  0  0  0  0
   -1.8072   11.8760   -1.7803 H   0  0  0  0  0  0  0  0  0  0  0  0
   -3.3174   10.9035   -1.7803 H   0  0  0  0  0  0  0  0  0  0  0  0
    0.1830    9.5068    0.1447 H   0  0  0  0  0  0  0  0  0  0  0  0
   -0.5856   11.7412    1.1733 H   0  0  0  0  0  0  0  0  0  0  0  0
    1.1890   11.4236    0.8001 H   0  0  0  0  0  0  0  0  0  0  0  0
    0.2839   13.8242    0.2019 H   0  0  0  0  0  0  0  0  0  0  0  0
   -0.5142   11.6379   -3.0959 H   0  0  0  0  0  0  0  0  0  0  0  0
    2.5489   11.9760   -3.1257 H   0  0  0  0  0  0  0  0  0  0  0  0
    1.5381   11.0733   -4.3396 H   0  0  0  0  0  0  0  0  0  0  0  0
    2.2384   13.2962   -5.1716 H   0  0  0  0  0  0  0  0  0  0  0  0
    0.4457   13.1354   -5.0093 H   0  0  0  0  0  0  0  0  0  0  0  0
    1.1026   15.2936   -4.1912 H   0  0  0  0  0  0  0  0  0  0  0  0
    3.3210   14.4240   -3.6450 H   0  0  0  0  0  0  0  0  0  0  0  0
   -1.8870   14.5313   -2.2985 H   0  0  0  0  0  0  0  0  0  0  0  0
   -1.1707   15.3711   -3.7156 H   0  0  0  0  0  0  0  0  0  0  0  0
   -1.3247   13.5815   -3.7156 H   0  0  0  0  0  0  0  0  0  0  0  0
    0.4000   15.2585   -0.4759 H   0  0  0  0  0  0  0  0  0  0  0  0
    1.4132   16.0594   -1.7245 H   0  0  0  0  0  0  0  0  0  0  0  0
   -0.3673   16.2972   -1.7245 H   0  0  0  0  0  0  0  0  0  0  0  0
    2.2198   10.0248   -0.4045 H   0  0  0  0  0  0  0  0  0  0  0  0
    2.3594    9.0812   -1.9266 H   0  0  0  0  0  0  0  0  0  0  0  0
    2.7103   10.8428   -1.9266 H   0  0  0  0  0  0  0  0  0  0  0  0
    0.3556    9.4597   -3.7893 H   0  0  0  0  0  0  0  0  0  0  0  0
    0.5846    8.2820   -2.3767 H   0  0  0  0  0  0  0  0  0  0  0  0
   -1.9672    9.6824   -3.2209 H   0  0  0  0  0  0  0  0  0  0  0  0
   -1.5802    7.9175   -3.2671 H   0  0  0  0  0  0  0  0  0  0  0  0
   -1.2191    7.5642    0.4405 H   0  0  0  0  0  0  0  0  0  0  0  0
   -1.6537    6.5541   -0.9799 H   0  0  0  0  0  0  0  0  0  0  0  0
   -0.1218    7.4921   -0.9799 H   0  0  0  0  0  0  0  0  0  0  0  0
  1  2  1  0
  2  3  1  0
  3  4  1  0
  4  5  1  0
  5  6  1  0
  6  7  1  0
  7  8  1  0
  7  9  1  0
  2 10  1  0
 10 11  1  0
 11 12  1  0
 12 13  1  0
 13 14  1  6
 13 15  1  0
 15 16  1  0
 16 17  1  0
 17 18  2  0
 18 19  1  0
 19 20  1  0
 20 21  1  0
 21 22  1  0
 22 23  1  0
 22 24  1  0
 24 25  1  0
 24 26  1  0
 19 27  1  0
 27 28  1  1
 27 29  1  0
 29 30  1  0
 30 31  1  0
 31 32  1  1
  7  5  1  0
 31 10  1  0
 31 13  1  0
 27 15  1  0
 24 18  1  0
  1 33  1  0
  1 34  1  0
  1 35  1  0
  2 36  1  1
  3 37  1  0
  3 38  1  0
  4 39  1  0
  4 40  1  0
  5 41  1  1
  8 42  1  0
  8 43  1  0
  8 44  1  0
  9 45  1  0
  9 46  1  0
  9 47  1  0
 10 48  1  6
 11 49  1  0
 11 50  1  0
 12 51  1  0
 12 52  1  0
 14 53  1  0
 14 54  1  0
 14 55  1  0
 15 56  1  1
 16 57  1  0
 16 58  1  0
 17 59  1  0
 19 60  1  6
 20 61  1  0
 20 62  1  0
 21 63  1  0
 21 64  1  0
 22 65  1  6
 23 66  1  0
 25 67  1  0
 25 68  1  0
 25 69  1  0
 26 70  1  0
 26 71  1  0
 26 72  1  0
 28 73  1  0
 28 74  1  0
 28 75  1  0
 29 76  1  0
 29 77  1  0
 30 78  1  0
 30 79  1  0
 32 80  1  0
 32 81  1  0
 32 82  1  0
M  END
>  <meeko>  (13) 
{"is_sidechain": [false], "intermolecular_energy": 2.731, "internal_energy": -0.839}

$$$$
EPH_relaxed_0001_pdb2pqr_Repair_341_r2_0001_out
     RDKit          3D

 82 86  0  0  0  0  0  0  0  0999 V2000
  -15.1020    8.9720    0.8080 C   0  0  0  0  0  0  0  0  0  0  0  0
  -14.2450    9.1590   -0.4460 C   0  0  2  0  0  0  0  0  0  0  0  0
  -14.6360    8.1770   -1.5690 C   0  0  0  0  0  0  0  0  0  0  0  0
  -14.5910    8.7950   -2.9690 C   0  0  0  0  0  0  0  0  0  0  0  0
  -15.2670   10.1320   -3.0080 C   0  0  2  0  0  0  0  0  0  0  0  0
  -14.9450   10.9330   -4.1520 O   0  0  0  0  0  0  0  0  0  0  0  0
  -14.5250   11.4490   -2.8780 C   0  0  0  0  0  0  0  0  0  0  0  0
  -13.0390   11.4920   -2.7000 C   0  0  0  0  0  0  0  0  0  0  0  0
  -15.2860   12.6590   -2.4370 C   0  0  0  0  0  0  0  0  0  0  0  0
  -12.7700    8.9910   -0.0980 C   0  0  1  0  0  0  0  0  0  0  0  0
  -12.5220    8.9280    1.4330 C   0  0  0  0  0  0  0  0  0  0  0  0
  -11.3450    7.9440    1.6550 C   0  0  0  0  0  0  0  0  0  0  0  0
  -10.7430    7.7320    0.2460 C   0  0  1  0  0  0  0  0  0  0  0  0
   -9.8260    8.9730    0.0110 C   0  0  0  0  0  0  0  0  0  0  0  0
   -9.9700    6.3920    0.0200 C   0  0  2  0  0  0  0  0  0  0  0  0
   -8.7200    6.2030    0.8980 C   0  0  0  0  0  0  0  0  0  0  0  0
   -7.4450    6.7120    0.3110 C   0  0  0  0  0  0  0  0  0  0  0  0
   -7.2540    7.0370   -0.9800 C   0  0  0  0  0  0  0  0  0  0  0  0
   -8.3580    6.8110   -2.0220 C   0  0  1  0  0  0  0  0  0  0  0  0
   -7.7520    6.1360   -3.2800 C   0  0  0  0  0  0  0  0  0  0  0  0
   -6.5660    6.9100   -3.8460 C   0  0  0  0  0  0  0  0  0  0  0  0
   -5.4650    7.0630   -2.8000 C   0  0  2  0  0  0  0  0  0  0  0  0
   -4.9180    5.7730   -2.5140 O   0  0  0  0  0  0  0  0  0  0  0  0
   -5.9600    7.7240   -1.4830 C   0  0  0  0  0  0  0  0  0  0  0  0
   -6.2710    9.2200   -1.7350 C   0  0  0  0  0  0  0  0  0  0  0  0
   -4.7900    7.6900   -0.4630 C   0  0  0  0  0  0  0  0  0  0  0  0
   -9.6630    6.0700   -1.4990 C   0  0  1  0  0  0  0  0  0  0  0  0
   -9.4720    4.5250   -1.5960 C   0  0  0  0  0  0  0  0  0  0  0  0
  -10.8710    6.4280   -2.4430 C   0  0  0  0  0  0  0  0  0  0  0  0
  -11.6690    7.7000   -2.0970 C   0  0  0  0  0  0  0  0  0  0  0  0
  -12.0580    7.7170   -0.6150 C   0  0  2  0  0  0  0  0  0  0  0  0
  -12.9990    6.4920   -0.3530 C   0  0  0  0  0  0  0  0  0  0  0  0
  -14.4770    9.1084    1.7029 H   0  0  0  0  0  0  0  0  0  0  0  0
  -15.9140    9.7141    0.8112 H   0  0  0  0  0  0  0  0  0  0  0  0
  -15.5310    7.9591    0.8112 H   0  0  0  0  0  0  0  0  0  0  0  0
  -14.4252   10.1775   -0.8204 H   0  0  0  0  0  0  0  0  0  0  0  0
  -13.9410    7.3248   -1.5429 H   0  0  0  0  0  0  0  0  0  0  0  0
  -15.6773    7.8746   -1.3840 H   0  0  0  0  0  0  0  0  0  0  0  0
  -13.5403    8.9181   -3.2705 H   0  0  0  0  0  0  0  0  0  0  0  0
  -15.1231    8.1221   -3.6576 H   0  0  0  0  0  0  0  0  0  0  0  0
  -16.1482    9.7274   -2.4886 H   0  0  0  0  0  0  0  0  0  0  0  0
  -12.7983   11.4990   -1.6267 H   0  0  0  0  0  0  0  0  0  0  0  0
  -12.5875   10.6065   -3.1713 H   0  0  0  0  0  0  0  0  0  0  0  0
  -12.6394   12.4021   -3.1713 H   0  0  0  0  0  0  0  0  0  0  0  0
  -15.3098   12.6968   -1.3379 H   0  0  0  0  0  0  0  0  0  0  0  0
  -14.7936   13.5632   -2.8244 H   0  0  0  0  0  0  0  0  0  0  0  0
  -16.3142   12.6068   -2.8244 H   0  0  0  0  0  0  0  0  0  0  0  0
  -12.3595    9.8802   -0.5988 H   0  0  0  0  0  0  0  0  0  0  0  0
  -12.2593    9.9253    1.8156 H   0  0  0  0  0  0  0  0  0  0  0  0
  -13.4238    8.5919    1.9658 H   0  0  0  0  0  0  0  0  0  0  0  0
  -10.5979    8.3792    2.3351 H   0  0  0  0  0  0  0  0  0  0  0  0
  -11.6716    7.0000    2.1156 H   0  0  0  0  0  0  0  0  0  0  0  0
   -9.5178    9.3901    0.9811 H   0  0  0  0  0  0  0  0  0  0  0  0
   -8.9346    8.6680   -0.5568 H   0  0  0  0  0  0  0  0  0  0  0  0
  -10.3793    9.7355   -0.5568 H   0  0  0  0  0  0  0  0  0  0  0  0
  -10.6945    5.6403    0.3665 H   0  0  0  0  0  0  0  0  0  0  0  0
   -8.8901    6.7289    1.8490 H   0  0  0  0  0  0  0  0  0  0  0  0
   -8.5899    5.1167    1.0122 H   0  0  0  0  0  0  0  0  0  0  0  0
   -6.5895    6.8313    0.9921 H   0  0  0  0  0  0  0  0  0  0  0  0
   -8.7402    7.8090   -2.2825 H   0  0  0  0  0  0  0  0  0  0  0  0
   -7.4159    5.1241   -3.0097 H   0  0  0  0  0  0  0  0  0  0  0  0
   -8.5334    6.1103   -4.0538 H   0  0  0  0  0  0  0  0  0  0  0  0
   -6.1642    6.3682   -4.7149 H   0  0  0  0  0  0  0  0  0  0  0  0
   -6.9100    7.9118   -4.1427 H   0  0  0  0  0  0  0  0  0  0  0  0
   -4.7012    7.7336   -3.2206 H   0  0  0  0  0  0  0  0  0  0  0  0
   -5.1110    5.1970   -3.2730 H   0  0  0  0  0  0  0  0  0  0  0  0
   -6.3790    9.7394   -0.7714 H   0  0  0  0  0  0  0  0  0  0  0  0
   -5.4481    9.6744   -2.3063 H   0  0  0  0  0  0  0  0  0  0  0  0
   -7.2068    9.3088   -2.3063 H   0  0  0  0  0  0  0  0  0  0  0  0
   -5.1947    7.7018    0.5598 H   0  0  0  0  0  0  0  0  0  0  0  0
   -4.1992    6.7743   -0.6130 H   0  0  0  0  0  0  0  0  0  0  0  0
   -4.1471    8.5698   -0.6130 H   0  0  0  0  0  0  0  0  0  0  0  0
   -9.4192    4.0978   -0.5837 H   0  0  0  0  0  0  0  0  0  0  0  0
  -10.3224    4.0836   -2.1363 H   0  0  0  0  0  0  0  0  0  0  0  0
   -8.5397    4.3040   -2.1363 H   0  0  0  0  0  0  0  0  0  0  0  0
  -10.4728    6.5514   -3.4610 H   0  0  0  0  0  0  0  0  0  0  0  0
  -11.5845    5.5992   -2.3248 H   0  0  0  0  0  0  0  0  0  0  0  0
  -11.0514    8.5833   -2.3171 H   0  0  0  0  0  0  0  0  0  0  0  0
  -12.5882    7.7127   -2.7011 H   0  0  0  0  0  0  0  0  0  0  0  0
  -13.1136    6.3429    0.7308 H   0  0  0  0  0  0  0  0  0  0  0  0
  -13.9843    6.6837   -0.8029 H   0  0  0  0  0  0  0  0  0  0  0  0
  -12.5598    5.5894   -0.8029 H   0  0  0  0  0  0  0  0  0  0  0  0
  1  2  1  0
  2  3  1  0
  3  4  1  0
  4  5  1  0
  5  6  1  0
  6  7  1  0
  7  8  1  0
  7  9  1  0
  2 10  1  0
 10 11  1  0
 11 12  1  0
 12 13  1  0
 13 14  1  6
 13 15  1  0
 15 16  1  0
 16 17  1  0
 17 18  2  0
 18 19  1  0
 19 20  1  0
 20 21  1  0
 21 22  1  0
 22 23  1  0
 22 24  1  0
 24 25  1  0
 24 26  1  0
 19 27  1  0
 27 28  1  1
 27 29  1  0
 29 30  1  0
 30 31  1  0
 31 32  1  1
  7  5  1  0
 31 10  1  0
 31 13  1  0
 27 15  1  0
 24 18  1  0
  1 33  1  0
  1 34  1  0
  1 35  1  0
  2 36  1  6
  3 37  1  0
  3 38  1  0
  4 39  1  0
  4 40  1  0
  5 41  1  1
  8 42  1  0
  8 43  1  0
  8 44  1  0
  9 45  1  0
  9 46  1  0
  9 47  1  0
 10 48  1  6
 11 49  1  0
 11 50  1  0
 12 51  1  0
 12 52  1  0
 14 53  1  0
 14 54  1  0
 14 55  1  0
 15 56  1  1
 16 57  1  0
 16 58  1  0
 17 59  1  0
 19 60  1  6
 20 61  1  0
 20 62  1  0
 21 63  1  0
 21 64  1  0
 22 65  1  6
 23 66  1  0
 25 67  1  0
 25 68  1  0
 25 69  1  0
 26 70  1  0
 26 71  1  0
 26 72  1  0
 28 73  1  0
 28 74  1  0
 28 75  1  0
 29 76  1  0
 29 77  1  0
 30 78  1  0
 30 79  1  0
 32 80  1  0
 32 81  1  0
 32 82  1  0
M  END
>  <meeko>  (14) 
{"is_sidechain": [false], "intermolecular_energy": 2.731, "internal_energy": -0.839}

$$$$
EPH_relaxed_0001_pdb2pqr_Repair_341_r2_0001_out
     RDKit          3D

 82 86  0  0  0  0  0  0  0  0999 V2000
   -2.5640    7.5820   -2.6750 C   0  0  0  0  0  0  0  0  0  0  0  0
   -2.7160    7.8140   -1.1700 C   0  0  2  0  0  0  0  0  0  0  0  0
   -4.1600    8.1940   -0.7840 C   0  0  0  0  0  0  0  0  0  0  0  0
   -5.1340    7.0130   -0.8060 C   0  0  0  0  0  0  0  0  0  0  0  0
   -6.0090    7.0390   -2.0230 C   0  0  2  0  0  0  0  0  0  0  0  0
   -6.7560    8.2500   -2.1970 O   0  0  0  0  0  0  0  0  0  0  0  0
   -7.5250    7.0590   -1.9630 C   0  0  0  0  0  0  0  0  0  0  0  0
   -8.2540    7.0520   -0.6560 C   0  0  0  0  0  0  0  0  0  0  0  0
   -8.2940    6.5930   -3.1600 C   0  0  0  0  0  0  0  0  0  0  0  0
   -1.7510    8.9010   -0.7110 C   0  0  1  0  0  0  0  0  0  0  0  0
   -0.7980    8.4180    0.4140 C   0  0  0  0  0  0  0  0  0  0  0  0
    0.5610    9.1280    0.1850 C   0  0  0  0  0  0  0  0  0  0  0  0
    0.2530   10.2350   -0.8500 C   0  0  1  0  0  0  0  0  0  0  0  0
   -0.3600   11.4040   -0.0160 C   0  0  0  0  0  0  0  0  0  0  0  0
    1.4560   10.7190   -1.7240 C   0  0  2  0  0  0  0  0  0  0  0  0
    2.6100   11.3680   -0.9420 C   0  0  0  0  0  0  0  0  0  0  0  0
    2.5080   12.8470   -0.7650 C   0  0  0  0  0  0  0  0  0  0  0  0
    1.6860   13.6620   -1.4520 C   0  0  0  0  0  0  0  0  0  0  0  0
    0.8130   13.1210   -2.5920 C   0  0  1  0  0  0  0  0  0  0  0  0
    0.9210   14.0640   -3.8190 C   0  0  0  0  0  0  0  0  0  0  0  0
    0.5970   15.5140   -3.4730 C   0  0  0  0  0  0  0  0  0  0  0  0
    1.5240   16.0340   -2.3770 C   0  0  2  0  0  0  0  0  0  0  0  0
    2.8560   16.1030   -2.8940 O   0  0  0  0  0  0  0  0  0  0  0  0
    1.5060   15.1580   -1.0930 C   0  0  0  0  0  0  0  0  0  0  0  0
    0.1480   15.3240   -0.3680 C   0  0  0  0  0  0  0  0  0  0  0  0
    2.5870   15.7100   -0.1240 C   0  0  0  0  0  0  0  0  0  0  0  0
    1.0380   11.5950   -2.9730 C   0  0  1  0  0  0  0  0  0  0  0  0
    2.1950   11.4710   -4.0110 C   0  0  0  0  0  0  0  0  0  0  0  0
   -0.2560   11.0470   -3.6840 C   0  0  0  0  0  0  0  0  0  0  0  0
   -1.3580   10.4730   -2.7730 C   0  0  0  0  0  0  0  0  0  0  0  0
   -0.7740    9.4760   -1.7670 C   0  0  2  0  0  0  0  0  0  0  0  0
   -0.1700    8.2780   -2.5760 C   0  0  0  0  0  0  0  0  0  0  0  0
   -1.9686    6.6733   -2.8476 H   0  0  0  0  0  0  0  0  0  0  0  0
   -3.5583    7.4608   -3.1296 H   0  0  0  0  0  0  0  0  0  0  0  0
   -2.0558    8.4452   -3.1296 H   0  0  0  0  0  0  0  0  0  0  0  0
   -2.4770    6.8671   -0.6637 H   0  0  0  0  0  0  0  0  0  0  0  0
   -4.1484    8.6157    0.2319 H   0  0  0  0  0  0  0  0  0  0  0  0
   -4.5138    8.9164   -1.5343 H   0  0  0  0  0  0  0  0  0  0  0  0
   -4.5582    6.0758   -0.8008 H   0  0  0  0  0  0  0  0  0  0  0  0
   -5.7793    7.0839    0.0820 H   0  0  0  0  0  0  0  0  0  0  0  0
   -5.3009    6.4034   -2.5749 H   0  0  0  0  0  0  0  0  0  0  0  0
   -7.5269    7.0590    0.1694 H   0  0  0  0  0  0  0  0  0  0  0  0
   -8.8941    7.9440   -0.5884 H   0  0  0  0  0  0  0  0  0  0  0  0
   -8.8768    6.1478   -0.5884 H   0  0  0  0  0  0  0  0  0  0  0  0
   -9.1915    6.0491   -2.8303 H   0  0  0  0  0  0  0  0  0  0  0  0
   -8.5932    7.4619   -3.7646 H   0  0  0  0  0  0  0  0  0  0  0  0
   -7.6623    5.9256   -3.7646 H   0  0  0  0  0  0  0  0  0  0  0  0
   -2.4736    9.6726   -0.4067 H   0  0  0  0  0  0  0  0  0  0  0  0
   -1.2061    8.6898    1.3987 H   0  0  0  0  0  0  0  0  0  0  0  0
   -0.6811    7.3245    0.3900 H   0  0  0  0  0  0  0  0  0  0  0  0
    0.9333    9.5659    1.1229 H   0  0  0  0  0  0  0  0  0  0  0  0
    1.3402    8.4348   -0.1648 H   0  0  0  0  0  0  0  0  0  0  0  0
   -0.2467   11.1879    1.0566 H   0  0  0  0  0  0  0  0  0  0  0  0
    0.1628   12.3409   -0.2585 H   0  0  0  0  0  0  0  0  0  0  0  0
   -1.4280   11.5067   -0.2585 H   0  0  0  0  0  0  0  0  0  0  0  0
    1.8575    9.7738   -2.1181 H   0  0  0  0  0  0  0  0  0  0  0  0
    2.6451   10.9078    0.0565 H   0  0  0  0  0  0  0  0  0  0  0  0
    3.5175   11.1948   -1.5391 H   0  0  0  0  0  0  0  0  0  0  0  0
    3.1597   13.3098   -0.0093 H   0  0  0  0  0  0  0  0  0  0  0  0
   -0.2190   13.1210   -2.2113 H   0  0  0  0  0  0  0  0  0  0  0  0
    1.9476   14.0161   -4.2112 H   0  0  0  0  0  0  0  0  0  0  0  0
    0.1863   13.7267   -4.5649 H   0  0  0  0  0  0  0  0  0  0  0  0
    0.7197   16.1348   -4.3727 H   0  0  0  0  0  0  0  0  0  0  0  0
   -0.4398   15.5647   -3.1090 H   0  0  0  0  0  0  0  0  0  0  0  0
    1.1606   17.0296   -2.0824 H   0  0  0  0  0  0  0  0  0  0  0  0
    3.1520   15.1940   -3.0670 H   0  0  0  0  0  0  0  0  0  0  0  0
    0.3084   15.3044    0.7201 H   0  0  0  0  0  0  0  0  0  0  0  0
   -0.3056   16.2843   -0.6545 H   0  0  0  0  0  0  0  0  0  0  0  0
   -0.5236   14.5013   -0.6545 H   0  0  0  0  0  0  0  0  0  0  0  0
    2.2659   15.5461    0.9153 H   0  0  0  0  0  0  0  0  0  0  0  0
    3.5388   15.1876   -0.3005 H   0  0  0  0  0  0  0  0  0  0  0  0
    2.7219   16.7873   -0.3005 H   0  0  0  0  0  0  0  0  0  0  0  0
    3.1535   11.3683   -3.4812 H   0  0  0  0  0  0  0  0  0  0  0  0
    2.0281   10.5856   -4.6420 H   0  0  0  0  0  0  0  0  0  0  0  0
    2.2196   12.3717   -4.6420 H   0  0  0  0  0  0  0  0  0  0  0  0
   -0.6966   11.8754   -4.2581 H   0  0  0  0  0  0  0  0  0  0  0  0
    0.0873   10.1969   -4.2918 H   0  0  0  0  0  0  0  0  0  0  0  0
   -1.8377   11.2975   -2.2253 H   0  0  0  0  0  0  0  0  0  0  0  0
   -2.0934    9.9480   -3.4003 H   0  0  0  0  0  0  0  0  0  0  0  0
    0.2125    7.5194   -1.8772 H   0  0  0  0  0  0  0  0  0  0  0  0
   -0.9512    7.8324   -3.2094 H   0  0  0  0  0  0  0  0  0  0  0  0
    0.6528    8.6411   -3.2094 H   0  0  0  0  0  0  0  0  0  0  0  0
  1  2  1  0
  2  3  1  0
  3  4  1  0
  4  5  1  0
  5  6  1  0
  6  7  1  0
  7  8  1  0
  7  9  1  0
  2 10  1  0
 10 11  1  0
 11 12  1  0
 12 13  1  0
 13 14  1  1
 13 15  1  0
 15 16  1  0
 16 17  1  0
 17 18  2  0
 18 19  1  0
 19 20  1  0
 20 21  1  0
 21 22  1  0
 22 23  1  0
 22 24  1  0
 24 25  1  0
 24 26  1  0
 19 27  1  0
 27 28  1  6
 27 29  1  0
 29 30  1  0
 30 31  1  0
 31 32  1  6
  7  5  1  0
 31 10  1  0
 31 13  1  0
 27 15  1  0
 24 18  1  0
  1 33  1  0
  1 34  1  0
  1 35  1  0
  2 36  1  1
  3 37  1  0
  3 38  1  0
  4 39  1  0
  4 40  1  0
  5 41  1  6
  8 42  1  0
  8 43  1  0
  8 44  1  0
  9 45  1  0
  9 46  1  0
  9 47  1  0
 10 48  1  1
 11 49  1  0
 11 50  1  0
 12 51  1  0
 12 52  1  0
 14 53  1  0
 14 54  1  0
 14 55  1  0
 15 56  1  6
 16 57  1  0
 16 58  1  0
 17 59  1  0
 19 60  1  1
 20 61  1  0
 20 62  1  0
 21 63  1  0
 21 64  1  0
 22 65  1  1
 23 66  1  0
 25 67  1  0
 25 68  1  0
 25 69  1  0
 26 70  1  0
 26 71  1  0
 26 72  1  0
 28 73  1  0
 28 74  1  0
 28 75  1  0
 29 76  1  0
 29 77  1  0
 30 78  1  0
 30 79  1  0
 32 80  1  0
 32 81  1  0
 32 82  1  0
M  END
>  <meeko>  (15) 
{"is_sidechain": [false], "intermolecular_energy": 2.731, "internal_energy": -0.839}

$$$$
EPH_relaxed_0001_pdb2pqr_Repair_341_r2_0001_out
     RDKit          3D

 82 86  0  0  0  0  0  0  0  0999 V2000
    0.7600   16.2740   -4.5130 C   0  0  0  0  0  0  0  0  0  0  0  0
    1.1100   14.7930   -4.3380 C   0  0  2  0  0  0  0  0  0  0  0  0
    0.7600   13.9620   -5.5890 C   0  0  0  0  0  0  0  0  0  0  0  0
    1.6620   14.2520   -6.7920 C   0  0  0  0  0  0  0  0  0  0  0  0
    1.2440   15.4990   -7.5110 C   0  0  2  0  0  0  0  0  0  0  0  0
    0.4450   15.2770   -8.6800 O   0  0  0  0  0  0  0  0  0  0  0  0
    1.7360   15.8690   -8.8980 C   0  0  0  0  0  0  0  0  0  0  0  0
    2.6890   14.9920   -9.6480 C   0  0  0  0  0  0  0  0  0  0  0  0
    1.6770   17.3050   -9.3180 C   0  0  0  0  0  0  0  0  0  0  0  0
    0.3880   14.2300   -3.1200 C   0  0  1  0  0  0  0  0  0  0  0  0
   -0.9070   13.4610   -3.4950 C   0  0  0  0  0  0  0  0  0  0  0  0
   -1.0360   12.2860   -2.4920 C   0  0  0  0  0  0  0  0  0  0  0  0
   -0.0090   12.6070   -1.3810 C   0  0  1  0  0  0  0  0  0  0  0  0
   -0.7270   13.6400   -0.4570 C   0  0  0  0  0  0  0  0  0  0  0  0
    0.5340   11.3860   -0.5690 C   0  0  2  0  0  0  0  0  0  0  0  0
   -0.5260   10.6120    0.2340 C   0  0  0  0  0  0  0  0  0  0  0  0
   -0.7410   11.0890    1.6320 C   0  0  0  0  0  0  0  0  0  0  0  0
    0.0830   11.9060    2.3150 C   0  0  0  0  0  0  0  0  0  0  0  0
    1.4190   12.3590    1.7140 C   0  0  1  0  0  0  0  0  0  0  0  0
    2.5420   12.2050    2.7730 C   0  0  0  0  0  0  0  0  0  0  0  0
    2.2170   12.9230    4.0790 C   0  0  0  0  0  0  0  0  0  0  0  0
    0.9110   12.4040    4.6760 C   0  0  2  0  0  0  0  0  0  0  0  0
    1.0970   11.0430    5.0790 O   0  0  0  0  0  0  0  0  0  0  0  0
   -0.2910   12.5000    3.6960 C   0  0  0  0  0  0  0  0  0  0  0  0
   -0.6830   13.9840    3.4960 C   0  0  0  0  0  0  0  0  0  0  0  0
   -1.5120   11.8150    4.3690 C   0  0  0  0  0  0  0  0  0  0  0  0
    1.8060   11.7100    0.3160 C   0  0  1  0  0  0  0  0  0  0  0  0
    2.5460   10.3570    0.5430 C   0  0  0  0  0  0  0  0  0  0  0  0
    2.8250   12.6550   -0.4250 C   0  0  0  0  0  0  0  0  0  0  0  0
    2.2260   13.7670   -1.3070 C   0  0  0  0  0  0  0  0  0  0  0  0
    1.1570   13.2040   -2.2490 C   0  0  2  0  0  0  0  0  0  0  0  0
    1.8550   12.1780   -3.2060 C   0  0  0  0  0  0  0  0  0  0  0  0
    0.6490   16.7438   -3.5246 H   0  0  0  0  0  0  0  0  0  0  0  0
    1.5639   16.7774   -5.0700 H   0  0  0  0  0  0  0  0  0  0  0  0
   -0.1842   16.3643   -5.0700 H   0  0  0  0  0  0  0  0  0  0  0  0
    2.1979   14.7246   -4.1903 H   0  0  0  0  0  0  0  0  0  0  0  0
    0.8521   12.8958   -5.3347 H   0  0  0  0  0  0  0  0  0  0  0  0
   -0.2643   14.2364   -5.8813 H   0  0  0  0  0  0  0  0  0  0  0  0
    2.6972   14.3734   -6.4403 H   0  0  0  0  0  0  0  0  0  0  0  0
    1.5800   13.4083   -7.4931 H   0  0  0  0  0  0  0  0  0  0  0  0
    1.2095   16.0608   -6.5659 H   0  0  0  0  0  0  0  0  0  0  0  0
    3.3049   14.4252   -8.9343 H   0  0  0  0  0  0  0  0  0  0  0  0
    2.1231   14.2922  -10.2805 H   0  0  0  0  0  0  0  0  0  0  0  0
    3.3395   15.6140  -10.2805 H   0  0  0  0  0  0  0  0  0  0  0  0
    1.6506   17.9473   -8.4254 H   0  0  0  0  0  0  0  0  0  0  0  0
    2.5659   17.5482   -9.9186 H   0  0  0  0  0  0  0  0  0  0  0  0
    0.7711   17.4745   -9.9186 H   0  0  0  0  0  0  0  0  0  0  0  0
    0.2280   15.1599   -2.5546 H   0  0  0  0  0  0  0  0  0  0  0  0
   -1.7794   14.1260   -3.4136 H   0  0  0  0  0  0  0  0  0  0  0  0
   -0.8618   13.0930   -4.5306 H   0  0  0  0  0  0  0  0  0  0  0  0
   -2.0540   12.2388   -2.0780 H   0  0  0  0  0  0  0  0  0  0  0  0
   -0.8477   11.3110   -2.9652 H   0  0  0  0  0  0  0  0  0  0  0  0
   -0.5453   13.3785    0.5959 H   0  0  0  0  0  0  0  0  0  0  0  0
   -0.3334   14.6473   -0.6579 H   0  0  0  0  0  0  0  0  0  0  0  0
   -1.8084   13.6221   -0.6579 H   0  0  0  0  0  0  0  0  0  0  0  0
    0.8638   10.7022   -1.3650 H   0  0  0  0  0  0  0  0  0  0  0  0
   -1.4830   10.6901   -0.3027 H   0  0  0  0  0  0  0  0  0  0  0  0
   -0.1510    9.5813    0.3185 H   0  0  0  0  0  0  0  0  0  0  0  0
   -1.6493   10.7439    2.1478 H   0  0  0  0  0  0  0  0  0  0  0  0
    1.2918   13.4208    1.4563 H   0  0  0  0  0  0  0  0  0  0  0  0
    2.6828   11.1348    2.9846 H   0  0  0  0  0  0  0  0  0  0  0  0
    3.4547   12.6596    2.3603 H   0  0  0  0  0  0  0  0  0  0  0  0
    3.0335   12.7529    4.7963 H   0  0  0  0  0  0  0  0  0  0  0  0
    2.1057   13.9974    3.8710 H   0  0  0  0  0  0  0  0  0  0  0  0
    0.6647   13.0427    5.5371 H   0  0  0  0  0  0  0  0  0  0  0  0
    1.7340   10.6400    4.4660 H   0  0  0  0  0  0  0  0  0  0  0  0
   -0.8101   14.4651    4.4770 H   0  0  0  0  0  0  0  0  0  0  0  0
    0.1096   14.5001    2.9344 H   0  0  0  0  0  0  0  0  0  0  0  0
   -1.6271   14.0414    2.9344 H   0  0  0  0  0  0  0  0  0  0  0  0
   -1.4083   11.8732    5.4626 H   0  0  0  0  0  0  0  0  0  0  0  0
   -2.4356   12.3267    4.0605 H   0  0  0  0  0  0  0  0  0  0  0  0
   -1.5567   10.7601    4.0605 H   0  0  0  0  0  0  0  0  0  0  0  0
    2.6476   10.1712    1.6224 H   0  0  0  0  0  0  0  0  0  0  0  0
    1.9683    9.5415    0.0834 H   0  0  0  0  0  0  0  0  0  0  0  0
    3.5443   10.4035    0.0834 H   0  0  0  0  0  0  0  0  0  0  0  0
    3.4488   13.1380    0.3415 H   0  0  0  0  0  0  0  0  0  0  0  0
    3.3721   12.0003   -1.1193 H   0  0  0  0  0  0  0  0  0  0  0  0
    1.7698   14.5319   -0.6613 H   0  0  0  0  0  0  0  0  0  0  0  0
    3.0319   14.2058   -1.9136 H   0  0  0  0  0  0  0  0  0  0  0  0
    2.3746   11.4143   -2.6087 H   0  0  0  0  0  0  0  0  0  0  0  0
    1.0976   11.6946   -3.8405 H   0  0  0  0  0  0  0  0  0  0  0  0
    2.5828   12.7050   -3.8405 H   0  0  0  0  0  0  0  0  0  0  0  0
  1  2  1  0
  2  3  1  0
  3  4  1  0
  4  5  1  0
  5  6  1  0
  6  7  1  0
  7  8  1  0
  7  9  1  0
  2 10  1  0
 10 11  1  0
 11 12  1  0
 12 13  1  0
 13 14  1  1
 13 15  1  0
 15 16  1  0
 16 17  1  0
 17 18  2  0
 18 19  1  0
 19 20  1  0
 20 21  1  0
 21 22  1  0
 22 23  1  0
 22 24  1  0
 24 25  1  0
 24 26  1  0
 19 27  1  0
 27 28  1  1
 27 29  1  0
 29 30  1  0
 30 31  1  0
 31 32  1  6
  7  5  1  0
 31 10  1  0
 31 13  1  0
 27 15  1  0
 24 18  1  0
  1 33  1  0
  1 34  1  0
  1 35  1  0
  2 36  1  1
  3 37  1  0
  3 38  1  0
  4 39  1  0
  4 40  1  0
  5 41  1  1
  8 42  1  0
  8 43  1  0
  8 44  1  0
  9 45  1  0
  9 46  1  0
  9 47  1  0
 10 48  1  1
 11 49  1  0
 11 50  1  0
 12 51  1  0
 12 52  1  0
 14 53  1  0
 14 54  1  0
 14 55  1  0
 15 56  1  6
 16 57  1  0
 16 58  1  0
 17 59  1  0
 19 60  1  6
 20 61  1  0
 20 62  1  0
 21 63  1  0
 21 64  1  0
 22 65  1  1
 23 66  1  0
 25 67  1  0
 25 68  1  0
 25 69  1  0
 26 70  1  0
 26 71  1  0
 26 72  1  0
 28 73  1  0
 28 74  1  0
 28 75  1  0
 29 76  1  0
 29 77  1  0
 30 78  1  0
 30 79  1  0
 32 80  1  0
 32 81  1  0
 32 82  1  0
M  END
>  <meeko>  (16) 
{"is_sidechain": [false], "intermolecular_energy": 2.731, "internal_energy": -0.839}

$$$$
EPH_relaxed_0001_pdb2pqr_Repair_341_r2_0001_out
     RDKit          3D

 82 86  0  0  0  0  0  0  0  0999 V2000
   -1.3440   10.4260    1.5090 C   0  0  0  0  0  0  0  0  0  0  0  0
   -2.0540   10.0800    0.1970 C   0  0  2  0  0  0  0  0  0  0  0  0
   -2.9450    8.8290    0.3310 C   0  0  0  0  0  0  0  0  0  0  0  0
   -4.2770    8.9390   -0.4150 C   0  0  0  0  0  0  0  0  0  0  0  0
   -4.8130    7.5920   -0.7950 C   0  0  2  0  0  0  0  0  0  0  0  0
   -4.8940    7.3560   -2.2060 O   0  0  0  0  0  0  0  0  0  0  0  0
   -6.1430    7.3880   -1.4960 C   0  0  0  0  0  0  0  0  0  0  0  0
   -7.0190    8.5450   -1.8590 C   0  0  0  0  0  0  0  0  0  0  0  0
   -6.8100    6.0520   -1.3900 C   0  0  0  0  0  0  0  0  0  0  0  0
   -1.0270    9.8730   -0.9100 C   0  0  1  0  0  0  0  0  0  0  0  0
   -1.6060    9.0980   -2.1240 C   0  0  0  0  0  0  0  0  0  0  0  0
   -0.9280    9.6800   -3.3910 C   0  0  0  0  0  0  0  0  0  0  0  0
    0.2470   10.5280   -2.8500 C   0  0  1  0  0  0  0  0  0  0  0  0
    1.3840    9.4990   -2.5620 C   0  0  0  0  0  0  0  0  0  0  0  0
    0.7410   11.6910   -3.7710 C   0  0  2  0  0  0  0  0  0  0  0  0
    1.3060   11.2510   -5.1320 C   0  0  0  0  0  0  0  0  0  0  0  0
    2.7750   10.9840   -5.1570 C   0  0  0  0  0  0  0  0  0  0  0  0
    3.6540   11.3620   -4.2110 C   0  0  0  0  0  0  0  0  0  0  0  0
    3.2100   12.2220   -3.0210 C   0  0  1  0  0  0  0  0  0  0  0  0
    4.2190   13.3830   -2.8150 C   0  0  0  0  0  0  0  0  0  0  0  0
    5.6560   12.8900   -2.6740 C   0  0  0  0  0  0  0  0  0  0  0  0
    6.0800   12.0890   -3.9030 C   0  0  2  0  0  0  0  0  0  0  0  0
    6.1360   12.9690   -5.0300 O   0  0  0  0  0  0  0  0  0  0  0  0
    5.1320   10.8980   -4.2150 C   0  0  0  0  0  0  0  0  0  0  0  0
    5.3000    9.8020   -3.1350 C   0  0  0  0  0  0  0  0  0  0  0  0
    5.5910   10.2610   -5.5550 C   0  0  0  0  0  0  0  0  0  0  0  0
    1.7020   12.7230   -3.0520 C   0  0  1  0  0  0  0  0  0  0  0  0
    1.6010   14.0570   -3.8530 C   0  0  0  0  0  0  0  0  0  0  0  0
    1.2380   13.0500   -1.5840 C   0  0  0  0  0  0  0  0  0  0  0  0
    0.6480   11.8850   -0.7660 C   0  0  0  0  0  0  0  0  0  0  0  0
   -0.4240   11.1400   -1.5670 C   0  0  2  0  0  0  0  0  0  0  0  0
   -1.5920   12.1450   -1.8530 C   0  0  0  0  0  0  0  0  0  0  0  0
   -1.9727   10.1196    2.3580 H   0  0  0  0  0  0  0  0  0  0  0  0
   -0.3812    9.8961    1.5557 H   0  0  0  0  0  0  0  0  0  0  0  0
   -1.1681   11.5108    1.5557 H   0  0  0  0  0  0  0  0  0  0  0  0
   -2.7099   10.9255   -0.0578 H   0  0  0  0  0  0  0  0  0  0  0  0
   -2.3934    7.9654   -0.0689 H   0  0  0  0  0  0  0  0  0  0  0  0
   -3.1832    8.7171    1.3991 H   0  0  0  0  0  0  0  0  0  0  0  0
   -5.0082    9.4435    0.2337 H   0  0  0  0  0  0  0  0  0  0  0  0
   -4.1065    9.5128   -1.3379 H   0  0  0  0  0  0  0  0  0  0  0  0
   -4.3777    7.1384    0.1076 H   0  0  0  0  0  0  0  0  0  0  0  0
   -7.3856    9.0292   -0.9419 H   0  0  0  0  0  0  0  0  0  0  0  0
   -6.4417    9.2704   -2.4510 H   0  0  0  0  0  0  0  0  0  0  0  0
   -7.8738    8.1861   -2.4510 H   0  0  0  0  0  0  0  0  0  0  0  0
   -6.9406    5.7905   -0.3295 H   0  0  0  0  0  0  0  0  0  0  0  0
   -7.7933    6.0931   -1.8813 H   0  0  0  0  0  0  0  0  0  0  0  0
   -6.1862    5.2907   -1.8813 H   0  0  0  0  0  0  0  0  0  0  0  0
   -0.2510    9.3369   -0.3439 H   0  0  0  0  0  0  0  0  0  0  0  0
   -1.3793    8.0256   -2.0318 H   0  0  0  0  0  0  0  0  0  0  0  0
   -2.6994    9.2059   -2.1763 H   0  0  0  0  0  0  0  0  0  0  0  0
   -0.5577    8.8721   -4.0392 H   0  0  0  0  0  0  0  0  0  0  0  0
   -1.6244   10.2735   -4.0015 H   0  0  0  0  0  0  0  0  0  0  0  0
    1.5093    9.3856   -1.4751 H   0  0  0  0  0  0  0  0  0  0  0  0
    1.1195    8.5270   -3.0040 H   0  0  0  0  0  0  0  0  0  0  0  0
    2.3248    9.8589   -3.0040 H   0  0  0  0  0  0  0  0  0  0  0  0
   -0.1930   12.2270   -3.9955 H   0  0  0  0  0  0  0  0  0  0  0  0
    0.7878   10.3286   -5.4329 H   0  0  0  0  0  0  0  0  0  0  0  0
    1.1385   12.0945   -5.8179 H   0  0  0  0  0  0  0  0  0  0  0  0
    3.1719   10.4318   -6.0216 H   0  0  0  0  0  0  0  0  0  0  0  0
    3.2222   11.5572   -2.1447 H   0  0  0  0  0  0  0  0  0  0  0  0
    4.1612   14.0585   -3.6812 H   0  0  0  0  0  0  0  0  0  0  0  0
    3.9493   13.8985   -1.8814 H   0  0  0  0  0  0  0  0  0  0  0  0
    6.3245   13.7562   -2.5604 H   0  0  0  0  0  0  0  0  0  0  0  0
    5.7189   12.2378   -1.7904 H   0  0  0  0  0  0  0  0  0  0  0  0
    7.0678   11.6548   -3.6894 H   0  0  0  0  0  0  0  0  0  0  0  0
    6.4770   12.4590   -5.7840 H   0  0  0  0  0  0  0  0  0  0  0  0
    5.2302   10.2576   -2.1362 H   0  0  0  0  0  0  0  0  0  0  0  0
    4.5068    9.0487   -3.2506 H   0  0  0  0  0  0  0  0  0  0  0  0
    6.2824    9.3208   -3.2506 H   0  0  0  0  0  0  0  0  0  0  0  0
    6.2225    9.3846   -5.3471 H   0  0  0  0  0  0  0  0  0  0  0  0
    4.7091    9.9485   -6.1335 H   0  0  0  0  0  0  0  0  0  0  0  0
    6.1665   10.9987   -6.1335 H   0  0  0  0  0  0  0  0  0  0  0  0
    1.5370   14.9019   -3.1516 H   0  0  0  0  0  0  0  0  0  0  0  0
    2.4929   14.1729   -4.4863 H   0  0  0  0  0  0  0  0  0  0  0  0
    0.7018   14.0373   -4.4863 H   0  0  0  0  0  0  0  0  0  0  0  0
    2.1119   13.4322   -1.0361 H   0  0  0  0  0  0  0  0  0  0  0  0
    0.4135   13.7694   -1.6963 H   0  0  0  0  0  0  0  0  0  0  0  0
    1.4544   11.1838   -0.5052 H   0  0  0  0  0  0  0  0  0  0  0  0
    0.1846   12.2946    0.1436 H   0  0  0  0  0  0  0  0  0  0  0  0
   -2.0087   12.5036   -0.9002 H   0  0  0  0  0  0  0  0  0  0  0  0
   -1.2077   12.9992   -2.4298 H   0  0  0  0  0  0  0  0  0  0  0  0
   -2.3793   11.6376   -2.4298 H   0  0  0  0  0  0  0  0  0  0  0  0
  1  2  1  0
  2  3  1  0
  3  4  1  0
  4  5  1  0
  5  6  1  0
  6  7  1  0
  7  8  1  0
  7  9  1  0
  2 10  1  0
 10 11  1  0
 11 12  1  0
 12 13  1  0
 13 14  1  1
 13 15  1  0
 15 16  1  0
 16 17  1  0
 17 18  2  0
 18 19  1  0
 19 20  1  0
 20 21  1  0
 21 22  1  0
 22 23  1  0
 22 24  1  0
 24 25  1  0
 24 26  1  0
 19 27  1  0
 27 28  1  6
 27 29  1  0
 29 30  1  0
 30 31  1  0
 31 32  1  6
  7  5  1  0
 31 10  1  0
 31 13  1  0
 27 15  1  0
 24 18  1  0
  1 33  1  0
  1 34  1  0
  1 35  1  0
  2 36  1  6
  3 37  1  0
  3 38  1  0
  4 39  1  0
  4 40  1  0
  5 41  1  1
  8 42  1  0
  8 43  1  0
  8 44  1  0
  9 45  1  0
  9 46  1  0
  9 47  1  0
 10 48  1  1
 11 49  1  0
 11 50  1  0
 12 51  1  0
 12 52  1  0
 14 53  1  0
 14 54  1  0
 14 55  1  0
 15 56  1  6
 16 57  1  0
 16 58  1  0
 17 59  1  0
 19 60  1  1
 20 61  1  0
 20 62  1  0
 21 63  1  0
 21 64  1  0
 22 65  1  1
 23 66  1  0
 25 67  1  0
 25 68  1  0
 25 69  1  0
 26 70  1  0
 26 71  1  0
 26 72  1  0
 28 73  1  0
 28 74  1  0
 28 75  1  0
 29 76  1  0
 29 77  1  0
 30 78  1  0
 30 79  1  0
 32 80  1  0
 32 81  1  0
 32 82  1  0
M  END
>  <meeko>  (17) 
{"is_sidechain": [false], "intermolecular_energy": 2.731, "internal_energy": -0.839}

$$$$
