EPH_relaxed_0001_pdb2pqr_Repair_11_r2_0001_out
     RDKit          3D

 82 86  0  0  0  0  0  0  0  0999 V2000
   -1.2030    8.3990   -1.7950 C   0  0  0  0  0  0  0  0  0  0  0  0
   -1.7730    9.1780   -0.6060 C   0  0  2  0  0  0  0  0  0  0  0  0
   -3.2120    9.6680   -0.8670 C   0  0  0  0  0  0  0  0  0  0  0  0
   -4.2770    8.8890   -0.0920 C   0  0  0  0  0  0  0  0  0  0  0  0
   -4.5250    7.5390   -0.6940 C   0  0  2  0  0  0  0  0  0  0  0  0
   -4.6010    7.5260   -2.1250 O   0  0  0  0  0  0  0  0  0  0  0  0
   -5.8030    7.1700   -1.4240 C   0  0  0  0  0  0  0  0  0  0  0  0
   -6.9190    8.1540   -1.5890 C   0  0  0  0  0  0  0  0  0  0  0  0
   -6.1660    5.7230   -1.5450 C   0  0  0  0  0  0  0  0  0  0  0  0
   -0.8710   10.3630   -0.2800 C   0  0  1  0  0  0  0  0  0  0  0  0
    0.3050    9.9790    0.6560 C   0  0  0  0  0  0  0  0  0  0  0  0
    1.5190   10.8420    0.2270 C   0  0  0  0  0  0  0  0  0  0  0  0
    0.9210   11.9190   -0.7080 C   0  0  1  0  0  0  0  0  0  0  0  0
    0.3320   13.0000    0.2510 C   0  0  0  0  0  0  0  0  0  0  0  0
    1.8990   12.5460   -1.7540 C   0  0  2  0  0  0  0  0  0  0  0  0
    3.0900   13.3150   -1.1550 C   0  0  0  0  0  0  0  0  0  0  0  0
    2.8560   14.7700   -0.9190 C   0  0  0  0  0  0  0  0  0  0  0  0
    1.8450   15.4940   -1.4350 C   0  0  0  0  0  0  0  0  0  0  0  0
    0.8580   14.8700   -2.4300 C   0  0  1  0  0  0  0  0  0  0  0  0
    0.6540   15.8340   -3.6290 C   0  0  0  0  0  0  0  0  0  0  0  0
    0.2340   17.2330   -3.1890 C   0  0  0  0  0  0  0  0  0  0  0  0
    1.2680   17.8420   -2.2470 C   0  0  2  0  0  0  0  0  0  0  0  0
    2.4790   18.0690   -2.9760 O   0  0  0  0  0  0  0  0  0  0  0  0
    1.5640   16.9550   -1.0050 C   0  0  0  0  0  0  0  0  0  0  0  0
    0.3370   16.9570   -0.0600 C   0  0  0  0  0  0  0  0  0  0  0  0
    2.7240   17.6150   -0.2120 C   0  0  0  0  0  0  0  0  0  0  0  0
    1.1830   13.3840   -2.8900 C   0  0  1  0  0  0  0  0  0  0  0  0
    2.1560   13.4050   -4.1080 C   0  0  0  0  0  0  0  0  0  0  0  0
   -0.1430   12.7000   -3.3930 C   0  0  0  0  0  0  0  0  0  0  0  0
   -1.0060   11.9930   -2.3300 C   0  0  0  0  0  0  0  0  0  0  0  0
   -0.1550   11.0580   -1.4650 C   0  0  2  0  0  0  0  0  0  0  0  0
    0.4330    9.9460   -2.3990 C   0  0  0  0  0  0  0  0  0  0  0  0
   -0.5911    7.5627   -1.4260 H   0  0  0  0  0  0  0  0  0  0  0  0
   -2.0291    8.0070   -2.4065 H   0  0  0  0  0  0  0  0  0  0  0  0
   -0.5794    9.0678   -2.4065 H   0  0  0  0  0  0  0  0  0  0  0  0
   -1.8092    8.4905    0.2520 H   0  0  0  0  0  0  0  0  0  0  0  0
   -3.2763   10.7270   -0.5766 H   0  0  0  0  0  0  0  0  0  0  0  0
   -3.4153    9.5131   -1.9369 H   0  0  0  0  0  0  0  0  0  0  0  0
   -3.9385    8.7593    0.9465 H   0  0  0  0  0  0  0  0  0  0  0  0
   -5.2163    9.4600   -0.1324 H   0  0  0  0  0  0  0  0  0  0  0  0
   -3.9730    7.0485    0.1213 H   0  0  0  0  0  0  0  0  0  0  0  0
   -7.2781    8.4706   -0.5986 H   0  0  0  0  0  0  0  0  0  0  0  0
   -6.5555    9.0309   -2.1448 H   0  0  0  0  0  0  0  0  0  0  0  0
   -7.7435    7.6835   -2.1448 H   0  0  0  0  0  0  0  0  0  0  0  0
   -6.2753    5.2872   -0.5409 H   0  0  0  0  0  0  0  0  0  0  0  0
   -7.1159    5.6277   -2.0915 H   0  0  0  0  0  0  0  0  0  0  0  0
   -5.3736    5.1906   -2.0915 H   0  0  0  0  0  0  0  0  0  0  0  0
   -1.6131   11.0433    0.1632 H   0  0  0  0  0  0  0  0  0  0  0  0
    0.0407   10.1908    1.7026 H   0  0  0  0  0  0  0  0  0  0  0  0
    0.5365    8.9064    0.5793 H   0  0  0  0  0  0  0  0  0  0  0  0
    1.9930   11.3083    1.1033 H   0  0  0  0  0  0  0  0  0  0  0  0
    2.2999   10.2464   -0.2684 H   0  0  0  0  0  0  0  0  0  0  0  0
    0.4985   12.6943    1.2945 H   0  0  0  0  0  0  0  0  0  0  0  0
    0.8298   13.9636    0.0673 H   0  0  0  0  0  0  0  0  0  0  0  0
   -0.7475   13.1041    0.0673 H   0  0  0  0  0  0  0  0  0  0  0  0
    2.3298   11.6563   -2.2366 H   0  0  0  0  0  0  0  0  0  0  0  0
    3.3438   12.8508   -0.1906 H   0  0  0  0  0  0  0  0  0  0  0  0
    3.8973   13.2536   -1.8997 H   0  0  0  0  0  0  0  0  0  0  0  0
    3.5703   15.2955   -0.2681 H   0  0  0  0  0  0  0  0  0  0  0  0
   -0.0888   14.7473   -1.8836 H   0  0  0  0  0  0  0  0  0  0  0  0
    1.5993   15.9085   -4.1865 H   0  0  0  0  0  0  0  0  0  0  0  0
   -0.1530   15.4239   -4.2540 H   0  0  0  0  0  0  0  0  0  0  0  0
    0.1339   17.8747   -4.0768 H   0  0  0  0  0  0  0  0  0  0  0  0
   -0.7259   17.1601   -2.6567 H   0  0  0  0  0  0  0  0  0  0  0  0
    0.8509   18.7857   -1.8656 H   0  0  0  0  0  0  0  0  0  0  0  0
    2.6230   17.3000   -3.5530 H   0  0  0  0  0  0  0  0  0  0  0  0
    0.6793   16.9564    0.9854 H   0  0  0  0  0  0  0  0  0  0  0  0
   -0.2684   17.8561   -0.2471 H   0  0  0  0  0  0  0  0  0  0  0  0
   -0.2714   16.0598   -0.2471 H   0  0  0  0  0  0  0  0  0  0  0  0
    2.5375   17.5089    0.8669 H   0  0  0  0  0  0  0  0  0  0  0  0
    3.6724   17.1212   -0.4705 H   0  0  0  0  0  0  0  0  0  0  0  0
    2.7840   18.6825   -0.4705 H   0  0  0  0  0  0  0  0  0  0  0  0
    3.1949   13.4274   -3.7471 H   0  0  0  0  0  0  0  0  0  0  0  0
    1.9992   12.5033   -4.7181 H   0  0  0  0  0  0  0  0  0  0  0  0
    1.9604   14.2991   -4.7181 H   0  0  0  0  0  0  0  0  0  0  0  0
   -0.7629   13.4792   -3.8605 H   0  0  0  0  0  0  0  0  0  0  0  0
    0.1854   11.9017   -4.0749 H   0  0  0  0  0  0  0  0  0  0  0  0
   -1.4756   12.7509   -1.6858 H   0  0  0  0  0  0  0  0  0  0  0  0
   -1.7731   11.3943   -2.8430 H   0  0  0  0  0  0  0  0  0  0  0  0
    0.8596    9.1392   -1.7849 H   0  0  0  0  0  0  0  0  0  0  0  0
   -0.3679    9.5392   -3.0339 H   0  0  0  0  0  0  0  0  0  0  0  0
    1.2201   10.3789   -3.0339 H   0  0  0  0  0  0  0  0  0  0  0  0
  1  2  1  0
  2  3  1  0
  3  4  1  0
  4  5  1  0
  5  6  1  0
  6  7  1  0
  7  8  1  0
  7  9  1  0
  2 10  1  0
 10 11  1  0
 11 12  1  0
 12 13  1  0
 13 14  1  1
 13 15  1  0
 15 16  1  0
 16 17  1  0
 17 18  2  0
 18 19  1  0
 19 20  1  0
 20 21  1  0
 21 22  1  0
 22 23  1  0
 22 24  1  0
 24 25  1  0
 24 26  1  0
 19 27  1  0
 27 28  1  6
 27 29  1  0
 29 30  1  0
 30 31  1  0
 31 32  1  6
  7  5  1  0
 31 10  1  0
 31 13  1  0
 27 15  1  0
 24 18  1  0
  1 33  1  0
  1 34  1  0
  1 35  1  0
  2 36  1  1
  3 37  1  0
  3 38  1  0
  4 39  1  0
  4 40  1  0
  5 41  1  6
  8 42  1  0
  8 43  1  0
  8 44  1  0
  9 45  1  0
  9 46  1  0
  9 47  1  0
 10 48  1  1
 11 49  1  0
 11 50  1  0
 12 51  1  0
 12 52  1  0
 14 53  1  0
 14 54  1  0
 14 55  1  0
 15 56  1  6
 16 57  1  0
 16 58  1  0
 17 59  1  0
 19 60  1  1
 20 61  1  0
 20 62  1  0
 21 63  1  0
 21 64  1  0
 22 65  1  1
 23 66  1  0
 25 67  1  0
 25 68  1  0
 25 69  1  0
 26 70  1  0
 26 71  1  0
 26 72  1  0
 28 73  1  0
 28 74  1  0
 28 75  1  0
 29 76  1  0
 29 77  1  0
 30 78  1  0
 30 79  1  0
 32 80  1  0
 32 81  1  0
 32 82  1  0
M  END
>  <meeko>  (1) 
{"is_sidechain": [false], "intermolecular_energy": 2.731, "internal_energy": -0.839}

$$$$
EPH_relaxed_0001_pdb2pqr_Repair_11_r2_0001_out
     RDKit          3D

 82 86  0  0  0  0  0  0  0  0999 V2000
    2.3970   19.7970   -0.9210 C   0  0  0  0  0  0  0  0  0  0  0  0
    2.1510   18.8920    0.2900 C   0  0  2  0  0  0  0  0  0  0  0  0
    3.4670   18.4000    0.9240 C   0  0  0  0  0  0  0  0  0  0  0  0
    3.7500   19.0050    2.3020 C   0  0  0  0  0  0  0  0  0  0  0  0
    5.2140   18.9900    2.6230 C   0  0  2  0  0  0  0  0  0  0  0  0
    5.6410   17.8760    3.4180 O   0  0  0  0  0  0  0  0  0  0  0  0
    5.7640   19.1720    4.0260 C   0  0  0  0  0  0  0  0  0  0  0  0
    4.8590   19.3840    5.1980 C   0  0  0  0  0  0  0  0  0  0  0  0
    7.1800   19.6310    4.1840 C   0  0  0  0  0  0  0  0  0  0  0  0
    1.2920   17.7010   -0.1190 C   0  0  1  0  0  0  0  0  0  0  0  0
    0.1550   18.0920   -1.1000 C   0  0  0  0  0  0  0  0  0  0  0  0
   -0.0290   16.8970   -2.0700 C   0  0  0  0  0  0  0  0  0  0  0  0
    0.7630   15.7400   -1.4190 C   0  0  1  0  0  0  0  0  0  0  0  0
   -0.1920   15.1640   -0.3270 C   0  0  0  0  0  0  0  0  0  0  0  0
    1.2750   14.6230   -2.3860 C   0  0  2  0  0  0  0  0  0  0  0  0
    0.1730   13.8400   -3.1200 C   0  0  0  0  0  0  0  0  0  0  0  0
   -0.3160   12.6160   -2.4170 C   0  0  0  0  0  0  0  0  0  0  0  0
    0.3020   12.0050   -1.3890 C   0  0  0  0  0  0  0  0  0  0  0  0
    1.6720   12.4870   -0.8950 C   0  0  1  0  0  0  0  0  0  0  0  0
    2.6120   11.2680   -0.7040 C   0  0  0  0  0  0  0  0  0  0  0  0
    2.0070   10.2000    0.2020 C   0  0  0  0  0  0  0  0  0  0  0  0
    0.6750    9.7040   -0.3530 C   0  0  2  0  0  0  0  0  0  0  0  0
    0.9170    9.0060   -1.5780 O   0  0  0  0  0  0  0  0  0  0  0  0
   -0.3510   10.8460   -0.5960 C   0  0  0  0  0  0  0  0  0  0  0  0
   -0.8410   11.4040    0.7630 C   0  0  0  0  0  0  0  0  0  0  0  0
   -1.5970   10.2300   -1.2870 C   0  0  0  0  0  0  0  0  0  0  0  0
    2.3450   13.6500   -1.7430 C   0  0  1  0  0  0  0  0  0  0  0  0
    3.1610   13.0420   -2.9250 C   0  0  0  0  0  0  0  0  0  0  0  0
    3.3810   14.4150   -0.8370 C   0  0  0  0  0  0  0  0  0  0  0  0
    2.8370   15.5850    0.0040 C   0  0  0  0  0  0  0  0  0  0  0  0
    1.9970   16.5350   -0.8560 C   0  0  2  0  0  0  0  0  0  0  0  0
    2.9370   17.1470   -1.9490 C   0  0  0  0  0  0  0  0  0  0  0  0
    2.6710   20.8049   -0.5759 H   0  0  0  0  0  0  0  0  0  0  0  0
    3.2150   19.3824   -1.5284 H   0  0  0  0  0  0  0  0  0  0  0  0
    1.4817   19.8536   -1.5284 H   0  0  0  0  0  0  0  0  0  0  0  0
    1.6230   19.4888    1.0484 H   0  0  0  0  0  0  0  0  0  0  0  0
    3.4143   17.3063    1.0290 H   0  0  0  0  0  0  0  0  0  0  0  0
    4.2832   18.7188    0.2590 H   0  0  0  0  0  0  0  0  0  0  0  0
    3.3927   20.0453    2.3150 H   0  0  0  0  0  0  0  0  0  0  0  0
    3.2268   18.3995    3.0568 H   0  0  0  0  0  0  0  0  0  0  0  0
    5.4533   19.4791    1.6672 H   0  0  0  0  0  0  0  0  0  0  0  0
    5.4283   19.2506    6.1297 H   0  0  0  0  0  0  0  0  0  0  0  0
    4.4464   20.4031    5.1631 H   0  0  0  0  0  0  0  0  0  0  0  0
    4.0367   18.6542    5.1631 H   0  0  0  0  0  0  0  0  0  0  0  0
    7.4227   19.7097    5.2540 H   0  0  0  0  0  0  0  0  0  0  0  0
    7.8559   18.9059    3.7071 H   0  0  0  0  0  0  0  0  0  0  0  0
    7.3020   20.6147    3.7071 H   0  0  0  0  0  0  0  0  0  0  0  0
    0.9539   17.3692    0.8738 H   0  0  0  0  0  0  0  0  0  0  0  0
   -0.7769   18.2768   -0.5455 H   0  0  0  0  0  0  0  0  0  0  0  0
    0.4058   19.0116   -1.6491 H   0  0  0  0  0  0  0  0  0  0  0  0
   -1.0929   16.6341   -2.1647 H   0  0  0  0  0  0  0  0  0  0  0  0
    0.3263   17.1258   -3.0856 H   0  0  0  0  0  0  0  0  0  0  0  0
    0.2050   15.4034    0.6705 H   0  0  0  0  0  0  0  0  0  0  0  0
   -1.1909   15.6104   -0.4410 H   0  0  0  0  0  0  0  0  0  0  0  0
   -0.2631   14.0722   -0.4410 H   0  0  0  0  0  0  0  0  0  0  0  0
    1.7961   15.2031   -3.1618 H   0  0  0  0  0  0  0  0  0  0  0  0
   -0.6841   14.5141   -3.2647 H   0  0  0  0  0  0  0  0  0  0  0  0
    0.6229   13.4912   -4.0612 H   0  0  0  0  0  0  0  0  0  0  0  0
   -1.2610   12.1768   -2.7692 H   0  0  0  0  0  0  0  0  0  0  0  0
    1.4914   12.9742    0.0745 H   0  0  0  0  0  0  0  0  0  0  0  0
    2.8152   10.8216   -1.6886 H   0  0  0  0  0  0  0  0  0  0  0  0
    3.5343   11.6289   -0.2254 H   0  0  0  0  0  0  0  0  0  0  0  0
    2.7045    9.3525    0.2748 H   0  0  0  0  0  0  0  0  0  0  0  0
    1.8314   10.6403    1.1946 H   0  0  0  0  0  0  0  0  0  0  0  0
    0.2306    9.0387    0.4019 H   0  0  0  0  0  0  0  0  0  0  0  0
    1.8410    9.1690   -1.8320 H   0  0  0  0  0  0  0  0  0  0  0  0
   -0.3565   10.8523    1.5821 H   0  0  0  0  0  0  0  0  0  0  0  0
   -0.5824   12.4707    0.8361 H   0  0  0  0  0  0  0  0  0  0  0  0
   -1.9321   11.2854    0.8361 H   0  0  0  0  0  0  0  0  0  0  0  0
   -2.3052    9.8799   -0.5216 H   0  0  0  0  0  0  0  0  0  0  0  0
   -2.0824   10.9919   -1.9146 H   0  0  0  0  0  0  0  0  0  0  0  0
   -1.2864    9.3817   -1.9146 H   0  0  0  0  0  0  0  0  0  0  0  0
    3.9831   12.4295   -2.5262 H   0  0  0  0  0  0  0  0  0  0  0  0
    2.5011   12.4137   -3.5412 H   0  0  0  0  0  0  0  0  0  0  0  0
    3.5743   13.8541   -3.5412 H   0  0  0  0  0  0  0  0  0  0  0  0
    3.8209   13.6831   -0.1436 H   0  0  0  0  0  0  0  0  0  0  0  0
    4.0945   14.8720   -1.5385 H   0  0  0  0  0  0  0  0  0  0  0  0
    2.2105   15.1846    0.8146 H   0  0  0  0  0  0  0  0  0  0  0  0
    3.6886   16.1459    0.4165 H   0  0  0  0  0  0  0  0  0  0  0  0
    3.7636   17.6852   -1.4621 H   0  0  0  0  0  0  0  0  0  0  0  0
    3.3438   16.3402   -2.5763 H   0  0  0  0  0  0  0  0  0  0  0  0
    2.3638   17.8455   -2.5763 H   0  0  0  0  0  0  0  0  0  0  0  0
  1  2  1  0
  2  3  1  0
  3  4  1  0
  4  5  1  0
  5  6  1  0
  6  7  1  0
  7  8  1  0
  7  9  1  0
  2 10  1  0
 10 11  1  0
 11 12  1  0
 12 13  1  0
 13 14  1  1
 13 15  1  0
 15 16  1  0
 16 17  1  0
 17 18  2  0
 18 19  1  0
 19 20  1  0
 20 21  1  0
 21 22  1  0
 22 23  1  0
 22 24  1  0
 24 25  1  0
 24 26  1  0
 19 27  1  0
 27 28  1  6
 27 29  1  0
 29 30  1  0
 30 31  1  0
 31 32  1  6
  7  5  1  0
 31 10  1  0
 31 13  1  0
 27 15  1  0
 24 18  1  0
  1 33  1  0
  1 34  1  0
  1 35  1  0
  2 36  1  1
  3 37  1  0
  3 38  1  0
  4 39  1  0
  4 40  1  0
  5 41  1  6
  8 42  1  0
  8 43  1  0
  8 44  1  0
  9 45  1  0
  9 46  1  0
  9 47  1  0
 10 48  1  1
 11 49  1  0
 11 50  1  0
 12 51  1  0
 12 52  1  0
 14 53  1  0
 14 54  1  0
 14 55  1  0
 15 56  1  6
 16 57  1  0
 16 58  1  0
 17 59  1  0
 19 60  1  1
 20 61  1  0
 20 62  1  0
 21 63  1  0
 21 64  1  0
 22 65  1  1
 23 66  1  0
 25 67  1  0
 25 68  1  0
 25 69  1  0
 26 70  1  0
 26 71  1  0
 26 72  1  0
 28 73  1  0
 28 74  1  0
 28 75  1  0
 29 76  1  0
 29 77  1  0
 30 78  1  0
 30 79  1  0
 32 80  1  0
 32 81  1  0
 32 82  1  0
M  END
>  <meeko>  (2) 
{"is_sidechain": [false], "intermolecular_energy": 2.731, "internal_energy": -0.839}

$$$$
EPH_relaxed_0001_pdb2pqr_Repair_11_r2_0001_out
     RDKit          3D

 82 86  0  0  0  0  0  0  0  0999 V2000
    0.5740   18.4580    0.1410 C   0  0  0  0  0  0  0  0  0  0  0  0
    1.6330   17.3820   -0.1140 C   0  0  2  0  0  0  0  0  0  0  0  0
    2.8500   17.9350   -0.8820 C   0  0  0  0  0  0  0  0  0  0  0  0
    4.0760   18.1790    0.0020 C   0  0  0  0  0  0  0  0  0  0  0  0
    3.6870   18.6300    1.3770 C   0  0  2  0  0  0  0  0  0  0  0  0
    3.9300   20.0180    1.6420 O   0  0  0  0  0  0  0  0  0  0  0  0
    4.6890   19.0810    2.4240 C   0  0  0  0  0  0  0  0  0  0  0  0
    6.1580   19.1020    2.1400 C   0  0  0  0  0  0  0  0  0  0  0  0
    4.2870   19.0340    3.8650 C   0  0  0  0  0  0  0  0  0  0  0  0
    1.0160   16.2190   -0.8830 C   0  0  1  0  0  0  0  0  0  0  0  0
    0.7750   16.5530   -2.3800 C   0  0  0  0  0  0  0  0  0  0  0  0
    1.0240   15.2460   -3.1760 C   0  0  0  0  0  0  0  0  0  0  0  0
    1.0730   14.1370   -2.0990 C   0  0  1  0  0  0  0  0  0  0  0  0
   -0.4220   13.8120   -1.7900 C   0  0  0  0  0  0  0  0  0  0  0  0
    1.8790   12.8490   -2.4690 C   0  0  2  0  0  0  0  0  0  0  0  0
    1.3310   12.0600   -3.6710 C   0  0  0  0  0  0  0  0  0  0  0  0
    0.3340   11.0000   -3.3380 C   0  0  0  0  0  0  0  0  0  0  0  0
    0.1060   10.5000   -2.1090 C   0  0  0  0  0  0  0  0  0  0  0  0
    0.9600   10.9350   -0.9110 C   0  0  1  0  0  0  0  0  0  0  0  0
    1.3910    9.6830   -0.1010 C   0  0  0  0  0  0  0  0  0  0  0  0
    0.2050    8.8160    0.3110 C   0  0  0  0  0  0  0  0  0  0  0  0
   -0.5850    8.3560   -0.9110 C   0  0  2  0  0  0  0  0  0  0  0  0
    0.2300    7.4660   -1.6790 O   0  0  0  0  0  0  0  0  0  0  0  0
   -1.0640    9.5310   -1.8090 C   0  0  0  0  0  0  0  0  0  0  0  0
   -2.1770   10.3240   -1.0790 C   0  0  0  0  0  0  0  0  0  0  0  0
   -1.7240    8.9250   -3.0770 C   0  0  0  0  0  0  0  0  0  0  0  0
    2.1800   11.8970   -1.2420 C   0  0  1  0  0  0  0  0  0  0  0  0
    3.4330   11.0540   -1.6290 C   0  0  0  0  0  0  0  0  0  0  0  0
    2.5690   12.7000    0.0560 C   0  0  0  0  0  0  0  0  0  0  0  0
    1.8210   14.0240    0.3040 C   0  0  0  0  0  0  0  0  0  0  0  0
    1.8280   14.9010   -0.9510 C   0  0  2  0  0  0  0  0  0  0  0  0
    3.3180   15.2630   -1.2740 C   0  0  0  0  0  0  0  0  0  0  0  0
    0.4416   18.5926    1.2247 H   0  0  0  0  0  0  0  0  0  0  0  0
    0.8999   19.4072   -0.3092 H   0  0  0  0  0  0  0  0  0  0  0  0
   -0.3803   18.1472   -0.3092 H   0  0  0  0  0  0  0  0  0  0  0  0
    1.9924   17.0322    0.8650 H   0  0  0  0  0  0  0  0  0  0  0  0
    3.1244   17.2125   -1.6647 H   0  0  0  0  0  0  0  0  0  0  0  0
    2.5531   18.9097   -1.2964 H   0  0  0  0  0  0  0  0  0  0  0  0
    4.6493   17.2436    0.0825 H   0  0  0  0  0  0  0  0  0  0  0  0
    4.6801   18.9730   -0.4612 H   0  0  0  0  0  0  0  0  0  0  0  0
    2.8637   17.9012    1.4095 H   0  0  0  0  0  0  0  0  0  0  0  0
    6.7148   19.1100    3.0887 H   0  0  0  0  0  0  0  0  0  0  0  0
    6.4324   18.2077    1.5613 H   0  0  0  0  0  0  0  0  0  0  0  0
    6.4067   20.0038    1.5613 H   0  0  0  0  0  0  0  0  0  0  0  0
    5.1802   19.1384    4.4984 H   0  0  0  0  0  0  0  0  0  0  0  0
    3.5884   19.8566    4.0778 H   0  0  0  0  0  0  0  0  0  0  0  0
    3.7970   18.0724    4.0778 H   0  0  0  0  0  0  0  0  0  0  0  0
    0.1029   16.0687   -0.2884 H   0  0  0  0  0  0  0  0  0  0  0  0
   -0.2592   16.8964   -2.5297 H   0  0  0  0  0  0  0  0  0  0  0  0
    1.4468   17.3555   -2.7186 H   0  0  0  0  0  0  0  0  0  0  0  0
    0.2045   15.0617   -3.8862 H   0  0  0  0  0  0  0  0  0  0  0  0
    1.9475   15.2899   -3.7720 H   0  0  0  0  0  0  0  0  0  0  0  0
   -0.5726   13.7793   -0.7008 H   0  0  0  0  0  0  0  0  0  0  0  0
   -1.0643   14.5915   -2.2257 H   0  0  0  0  0  0  0  0  0  0  0  0
   -0.6827   12.8362   -2.2257 H   0  0  0  0  0  0  0  0  0  0  0  0
    2.8447   13.2614   -2.7966 H   0  0  0  0  0  0  0  0  0  0  0  0
    0.8513   12.7744   -4.3561 H   0  0  0  0  0  0  0  0  0  0  0  0
    2.1937   11.5384   -4.1110 H   0  0  0  0  0  0  0  0  0  0  0  0
   -0.2646   10.5933   -4.1664 H   0  0  0  0  0  0  0  0  0  0  0  0
    0.3135   11.5755   -0.2931 H   0  0  0  0  0  0  0  0  0  0  0  0
    2.0709    9.0793   -0.7201 H   0  0  0  0  0  0  0  0  0  0  0  0
    1.8838   10.0332    0.8180 H   0  0  0  0  0  0  0  0  0  0  0  0
    0.5754    7.9335    0.8533 H   0  0  0  0  0  0  0  0  0  0  0  0
   -0.4590    9.4121    0.9543 H   0  0  0  0  0  0  0  0  0  0  0  0
   -1.4911    7.8501   -0.5461 H   0  0  0  0  0  0  0  0  0  0  0  0
    0.0280    7.6170   -2.6180 H   0  0  0  0  0  0  0  0  0  0  0  0
   -2.0424   10.2281    0.0085 H   0  0  0  0  0  0  0  0  0  0  0  0
   -2.1182   11.3849   -1.3636 H   0  0  0  0  0  0  0  0  0  0  0  0
   -3.1605    9.9220   -1.3636 H   0  0  0  0  0  0  0  0  0  0  0  0
   -2.5037    8.2091   -2.7779 H   0  0  0  0  0  0  0  0  0  0  0  0
   -2.1754    9.7299   -3.6757 H   0  0  0  0  0  0  0  0  0  0  0  0
   -0.9605    8.4067   -3.6757 H   0  0  0  0  0  0  0  0  0  0  0  0
    3.9413   10.7120   -0.7154 H   0  0  0  0  0  0  0  0  0  0  0  0
    3.1195   10.1824   -2.2223 H   0  0  0  0  0  0  0  0  0  0  0  0
    4.1223   11.6728   -2.2223 H   0  0  0  0  0  0  0  0  0  0  0  0
    2.3829   12.0457    0.9204 H   0  0  0  0  0  0  0  0  0  0  0  0
    3.6214   12.9864   -0.0872 H   0  0  0  0  0  0  0  0  0  0  0  0
    0.7801   13.8025    0.5824 H   0  0  0  0  0  0  0  0  0  0  0  0
    2.3291   14.5673    1.1143 H   0  0  0  0  0  0  0  0  0  0  0  0
    3.8744   15.3982   -0.3348 H   0  0  0  0  0  0  0  0  0  0  0  0
    3.7748   14.4497   -1.8570 H   0  0  0  0  0  0  0  0  0  0  0  0
    3.3507   16.1952   -1.8570 H   0  0  0  0  0  0  0  0  0  0  0  0
  1  2  1  0
  2  3  1  0
  3  4  1  0
  4  5  1  0
  5  6  1  0
  6  7  1  0
  7  8  1  0
  7  9  1  0
  2 10  1  0
 10 11  1  0
 11 12  1  0
 12 13  1  0
 13 14  1  1
 13 15  1  0
 15 16  1  0
 16 17  1  0
 17 18  2  0
 18 19  1  0
 19 20  1  0
 20 21  1  0
 21 22  1  0
 22 23  1  0
 22 24  1  0
 24 25  1  0
 24 26  1  0
 19 27  1  0
 27 28  1  6
 27 29  1  0
 29 30  1  0
 30 31  1  0
 31 32  1  6
  7  5  1  0
 31 10  1  0
 31 13  1  0
 27 15  1  0
 24 18  1  0
  1 33  1  0
  1 34  1  0
  1 35  1  0
  2 36  1  1
  3 37  1  0
  3 38  1  0
  4 39  1  0
  4 40  1  0
  5 41  1  1
  8 42  1  0
  8 43  1  0
  8 44  1  0
  9 45  1  0
  9 46  1  0
  9 47  1  0
 10 48  1  1
 11 49  1  0
 11 50  1  0
 12 51  1  0
 12 52  1  0
 14 53  1  0
 14 54  1  0
 14 55  1  0
 15 56  1  6
 16 57  1  0
 16 58  1  0
 17 59  1  0
 19 60  1  1
 20 61  1  0
 20 62  1  0
 21 63  1  0
 21 64  1  0
 22 65  1  1
 23 66  1  0
 25 67  1  0
 25 68  1  0
 25 69  1  0
 26 70  1  0
 26 71  1  0
 26 72  1  0
 28 73  1  0
 28 74  1  0
 28 75  1  0
 29 76  1  0
 29 77  1  0
 30 78  1  0
 30 79  1  0
 32 80  1  0
 32 81  1  0
 32 82  1  0
M  END
>  <meeko>  (3) 
{"is_sidechain": [false], "intermolecular_energy": 2.731, "internal_energy": -0.839}

$$$$
EPH_relaxed_0001_pdb2pqr_Repair_11_r2_0001_out
     RDKit          3D

 82 86  0  0  0  0  0  0  0  0999 V2000
    2.5030   17.9810   -2.2130 C   0  0  0  0  0  0  0  0  0  0  0  0
    1.1180   17.7060   -1.6200 C   0  0  2  0  0  0  0  0  0  0  0  0
    1.1310   17.7300   -0.0780 C   0  0  0  0  0  0  0  0  0  0  0  0
    0.7240   19.0800    0.5190 C   0  0  0  0  0  0  0  0  0  0  0  0
   -0.7580   19.1730    0.7210 C   0  0  2  0  0  0  0  0  0  0  0  0
   -1.5300   18.2750   -0.0870 O   0  0  0  0  0  0  0  0  0  0  0  0
   -1.7170   19.6760   -0.3420 C   0  0  0  0  0  0  0  0  0  0  0  0
   -1.2300   20.1210   -1.6850 C   0  0  0  0  0  0  0  0  0  0  0  0
   -3.0540   20.1940    0.0890 C   0  0  0  0  0  0  0  0  0  0  0  0
    0.5980   16.3610   -2.1150 C   0  0  1  0  0  0  0  0  0  0  0  0
    0.3810   16.3340   -3.6520 C   0  0  0  0  0  0  0  0  0  0  0  0
    0.7340   14.9020   -4.1280 C   0  0  0  0  0  0  0  0  0  0  0  0
    0.8200   14.0680   -2.8280 C   0  0  1  0  0  0  0  0  0  0  0  0
   -0.6600   13.7220   -2.4750 C   0  0  0  0  0  0  0  0  0  0  0  0
    1.7150   12.7880   -2.8860 C   0  0  2  0  0  0  0  0  0  0  0  0
    1.2530   11.7140   -3.8870 C   0  0  0  0  0  0  0  0  0  0  0  0
    0.3140   10.6920   -3.3370 C   0  0  0  0  0  0  0  0  0  0  0  0
    0.0810   10.4660   -2.0300 C   0  0  0  0  0  0  0  0  0  0  0  0
    0.8710   11.2150   -0.9490 C   0  0  1  0  0  0  0  0  0  0  0  0
    1.3550   10.2090    0.1290 C   0  0  0  0  0  0  0  0  0  0  0  0
    0.2140    9.3790    0.7090 C   0  0  0  0  0  0  0  0  0  0  0  0
   -0.5100    8.6040   -0.3900 C   0  0  2  0  0  0  0  0  0  0  0  0
    0.3810    7.6210   -0.9240 O   0  0  0  0  0  0  0  0  0  0  0  0
   -1.0350    9.5130   -1.5360 C   0  0  0  0  0  0  0  0  0  0  0  0
   -2.2150   10.3720   -1.0210 C   0  0  0  0  0  0  0  0  0  0  0  0
   -1.6180    8.5940   -2.6440 C   0  0  0  0  0  0  0  0  0  0  0  0
    2.0380   12.1580   -1.4710 C   0  0  1  0  0  0  0  0  0  0  0  0
    3.3520   11.3360   -1.6400 C   0  0  0  0  0  0  0  0  0  0  0  0
    2.3380   13.2560   -0.3820 C   0  0  0  0  0  0  0  0  0  0  0  0
    1.5030   14.5480   -0.4510 C   0  0  0  0  0  0  0  0  0  0  0  0
    1.4920   15.1200   -1.8720 C   0  0  2  0  0  0  0  0  0  0  0  0
    2.9650   15.4990   -2.2460 C   0  0  0  0  0  0  0  0  0  0  0  0
    3.2285   18.1250   -1.3988 H   0  0  0  0  0  0  0  0  0  0  0  0
    2.8126   17.1268   -2.8331 H   0  0  0  0  0  0  0  0  0  0  0  0
    2.4627   18.8887   -2.8331 H   0  0  0  0  0  0  0  0  0  0  0  0
    0.4483   18.5108   -1.9573 H   0  0  0  0  0  0  0  0  0  0  0  0
    0.4317   16.9635    0.2874 H   0  0  0  0  0  0  0  0  0  0  0  0
    2.1668   17.5373    0.2382 H   0  0  0  0  0  0  0  0  0  0  0  0
    1.2247   19.2056    1.4904 H   0  0  0  0  0  0  0  0  0  0  0  0
    1.0243   19.8704   -0.1846 H   0  0  0  0  0  0  0  0  0  0  0  0
   -0.6208   19.4429    1.7785 H   0  0  0  0  0  0  0  0  0  0  0  0
   -0.4235   20.8580   -1.5569 H   0  0  0  0  0  0  0  0  0  0  0  0
   -0.8484   19.2531   -2.2427 H   0  0  0  0  0  0  0  0  0  0  0  0
   -2.0601   20.5791   -2.2427 H   0  0  0  0  0  0  0  0  0  0  0  0
   -3.1030   20.2130    1.1877 H   0  0  0  0  0  0  0  0  0  0  0  0
   -3.1962   21.2123   -0.3020 H   0  0  0  0  0  0  0  0  0  0  0  0
   -3.8451   19.5373   -0.3020 H   0  0  0  0  0  0  0  0  0  0  0  0
   -0.3209   16.2861   -1.5149 H   0  0  0  0  0  0  0  0  0  0  0  0
   -0.6677   16.5648   -3.8907 H   0  0  0  0  0  0  0  0  0  0  0  0
    1.0111   17.0835   -4.1532 H   0  0  0  0  0  0  0  0  0  0  0  0
   -0.0511   14.5085   -4.7904 H   0  0  0  0  0  0  0  0  0  0  0  0
    1.6704   14.8733   -4.7044 H   0  0  0  0  0  0  0  0  0  0  0  0
   -0.7793   13.6941   -1.3818 H   0  0  0  0  0  0  0  0  0  0  0  0
   -1.3265   14.4886   -2.8972 H   0  0  0  0  0  0  0  0  0  0  0  0
   -0.9176   12.7394   -2.8972 H   0  0  0  0  0  0  0  0  0  0  0  0
    2.6623   13.1804   -3.2842 H   0  0  0  0  0  0  0  0  0  0  0  0
    0.7505   12.2223   -4.7232 H   0  0  0  0  0  0  0  0  0  0  0  0
    2.1589   11.1659   -4.1852 H   0  0  0  0  0  0  0  0  0  0  0  0
   -0.2341   10.0708   -4.0607 H   0  0  0  0  0  0  0  0  0  0  0  0
    0.1680   11.9329   -0.5012 H   0  0  0  0  0  0  0  0  0  0  0  0
    2.0890    9.5288   -0.3277 H   0  0  0  0  0  0  0  0  0  0  0  0
    1.7978   10.7890    0.9521 H   0  0  0  0  0  0  0  0  0  0  0  0
    0.6225    8.6677    1.4419 H   0  0  0  0  0  0  0  0  0  0  0  0
   -0.5043   10.0580    1.1916 H   0  0  0  0  0  0  0  0  0  0  0  0
   -1.3935    8.1327    0.0653 H   0  0  0  0  0  0  0  0  0  0  0  0
    0.2590    7.6050   -1.8880 H   0  0  0  0  0  0  0  0  0  0  0  0
   -2.2156   10.3724    0.0790 H   0  0  0  0  0  0  0  0  0  0  0  0
   -2.1055   11.4032   -1.3880 H   0  0  0  0  0  0  0  0  0  0  0  0
   -3.1626    9.9509   -1.3880 H   0  0  0  0  0  0  0  0  0  0  0  0
   -2.1520    7.7523   -2.1788 H   0  0  0  0  0  0  0  0  0  0  0  0
   -2.3159    9.1705   -3.2690 H   0  0  0  0  0  0  0  0  0  0  0  0
   -0.7991    8.2083   -3.2690 H   0  0  0  0  0  0  0  0  0  0  0  0
    3.7563   11.0831   -0.6488 H   0  0  0  0  0  0  0  0  0  0  0  0
    3.1370   10.4111   -2.1952 H   0  0  0  0  0  0  0  0  0  0  0  0
    4.0897   11.9339   -2.1952 H   0  0  0  0  0  0  0  0  0  0  0  0
    2.1669   12.8014    0.6050 H   0  0  0  0  0  0  0  0  0  0  0  0
    3.3745   13.5725   -0.5700 H   0  0  0  0  0  0  0  0  0  0  0  0
    0.4701   14.3254   -0.1449 H   0  0  0  0  0  0  0  0  0  0  0  0
    1.9530   15.2922    0.2226 H   0  0  0  0  0  0  0  0  0  0  0  0
    3.5497   15.6494   -1.3265 H   0  0  0  0  0  0  0  0  0  0  0  0
    3.4137   14.6871   -2.8371 H   0  0  0  0  0  0  0  0  0  0  0  0
    2.9661   16.4267   -2.8371 H   0  0  0  0  0  0  0  0  0  0  0  0
  1  2  1  0
  2  3  1  0
  3  4  1  0
  4  5  1  0
  5  6  1  0
  6  7  1  0
  7  8  1  0
  7  9  1  0
  2 10  1  0
 10 11  1  0
 11 12  1  0
 12 13  1  0
 13 14  1  1
 13 15  1  0
 15 16  1  0
 16 17  1  0
 17 18  2  0
 18 19  1  0
 19 20  1  0
 20 21  1  0
 21 22  1  0
 22 23  1  0
 22 24  1  0
 24 25  1  0
 24 26  1  0
 19 27  1  0
 27 28  1  6
 27 29  1  0
 29 30  1  0
 30 31  1  0
 31 32  1  6
  7  5  1  0
 31 10  1  0
 31 13  1  0
 27 15  1  0
 24 18  1  0
  1 33  1  0
  1 34  1  0
  1 35  1  0
  2 36  1  6
  3 37  1  0
  3 38  1  0
  4 39  1  0
  4 40  1  0
  5 41  1  1
  8 42  1  0
  8 43  1  0
  8 44  1  0
  9 45  1  0
  9 46  1  0
  9 47  1  0
 10 48  1  1
 11 49  1  0
 11 50  1  0
 12 51  1  0
 12 52  1  0
 14 53  1  0
 14 54  1  0
 14 55  1  0
 15 56  1  6
 16 57  1  0
 16 58  1  0
 17 59  1  0
 19 60  1  1
 20 61  1  0
 20 62  1  0
 21 63  1  0
 21 64  1  0
 22 65  1  1
 23 66  1  0
 25 67  1  0
 25 68  1  0
 25 69  1  0
 26 70  1  0
 26 71  1  0
 26 72  1  0
 28 73  1  0
 28 74  1  0
 28 75  1  0
 29 76  1  0
 29 77  1  0
 30 78  1  0
 30 79  1  0
 32 80  1  0
 32 81  1  0
 32 82  1  0
M  END
>  <meeko>  (4) 
{"is_sidechain": [false], "intermolecular_energy": 2.731, "internal_energy": -0.839}

$$$$
EPH_relaxed_0001_pdb2pqr_Repair_11_r2_0001_out
     RDKit          3D

 82 86  0  0  0  0  0  0  0  0999 V2000
    1.7750   18.4770   -2.9230 C   0  0  0  0  0  0  0  0  0  0  0  0
    0.5540   18.0190   -2.1220 C   0  0  2  0  0  0  0  0  0  0  0  0
    0.7870   18.1160   -0.6010 C   0  0  0  0  0  0  0  0  0  0  0  0
    1.2000   19.5130   -0.1290 C   0  0  0  0  0  0  0  0  0  0  0  0
    2.1570   19.4490    1.0230 C   0  0  2  0  0  0  0  0  0  0  0  0
    3.3670   20.1940    0.8370 O   0  0  0  0  0  0  0  0  0  0  0  0
    3.5110   18.7690    0.9480 C   0  0  0  0  0  0  0  0  0  0  0  0
    3.9830   18.1050   -0.3080 C   0  0  0  0  0  0  0  0  0  0  0  0
    4.1610   18.3260    2.2220 C   0  0  0  0  0  0  0  0  0  0  0  0
    0.1890   16.5890   -2.5030 C   0  0  1  0  0  0  0  0  0  0  0  0
   -0.0100   16.4110   -4.0320 C   0  0  0  0  0  0  0  0  0  0  0  0
    0.5020   14.9910   -4.3860 C   0  0  0  0  0  0  0  0  0  0  0  0
    0.6670   14.2830   -3.0210 C   0  0  1  0  0  0  0  0  0  0  0  0
   -0.7700   13.8060   -2.6410 C   0  0  0  0  0  0  0  0  0  0  0  0
    1.6960   13.1080   -2.9710 C   0  0  2  0  0  0  0  0  0  0  0  0
    1.3640   11.9100   -3.8790 C   0  0  0  0  0  0  0  0  0  0  0  0
    0.5380   10.8410   -3.2450 C   0  0  0  0  0  0  0  0  0  0  0  0
    0.3180   10.7000   -1.9250 C   0  0  0  0  0  0  0  0  0  0  0  0
    1.0110   11.6180   -0.9090 C   0  0  1  0  0  0  0  0  0  0  0  0
    1.5920   10.7650    0.2490 C   0  0  0  0  0  0  0  0  0  0  0  0
    0.5420    9.8660    0.8960 C   0  0  0  0  0  0  0  0  0  0  0  0
   -0.0820    8.9280   -0.1340 C   0  0  2  0  0  0  0  0  0  0  0  0
    0.9170    8.0070   -0.5840 O   0  0  0  0  0  0  0  0  0  0  0  0
   -0.6910    9.6750   -1.3530 C   0  0  0  0  0  0  0  0  0  0  0  0
   -1.9640   10.4400   -0.9120 C   0  0  0  0  0  0  0  0  0  0  0  0
   -1.1600    8.6090   -2.3800 C   0  0  0  0  0  0  0  0  0  0  0  0
    2.0730   12.6380   -1.5080 C   0  0  1  0  0  0  0  0  0  0  0  0
    3.4710   11.9530   -1.6070 C   0  0  0  0  0  0  0  0  0  0  0  0
    2.2410   13.8480   -0.5150 C   0  0  0  0  0  0  0  0  0  0  0  0
    1.2700   15.0310   -0.6920 C   0  0  0  0  0  0  0  0  0  0  0  0
    1.2110   15.4780   -2.1560 C   0  0  2  0  0  0  0  0  0  0  0  0
    2.6370   15.9840   -2.5600 C   0  0  0  0  0  0  0  0  0  0  0  0
    2.5757   18.7774   -2.2312 H   0  0  0  0  0  0  0  0  0  0  0  0
    2.1289   17.6505   -3.5568 H   0  0  0  0  0  0  0  0  0  0  0  0
    1.4980   19.3323   -3.5568 H   0  0  0  0  0  0  0  0  0  0  0  0
   -0.2777   18.6942   -2.3719 H   0  0  0  0  0  0  0  0  0  0  0  0
   -0.1457   17.8380   -0.0884 H   0  0  0  0  0  0  0  0  0  0  0  0
    1.6176   17.4366   -0.3592 H   0  0  0  0  0  0  0  0  0  0  0  0
    1.6819   20.0432   -0.9636 H   0  0  0  0  0  0  0  0  0  0  0  0
    0.2960   20.0430    0.2055 H   0  0  0  0  0  0  0  0  0  0  0  0
    1.3267   19.3626    1.7394 H   0  0  0  0  0  0  0  0  0  0  0  0
    4.6027   17.2332   -0.0513 H   0  0  0  0  0  0  0  0  0  0  0  0
    3.1145   17.7766   -0.8978 H   0  0  0  0  0  0  0  0  0  0  0  0
    4.5786   18.8173   -0.8978 H   0  0  0  0  0  0  0  0  0  0  0  0
    3.5910   18.7145    3.0788 H   0  0  0  0  0  0  0  0  0  0  0  0
    4.1790   17.2269    2.2616 H   0  0  0  0  0  0  0  0  0  0  0  0
    5.1906   18.7112    2.2616 H   0  0  0  0  0  0  0  0  0  0  0  0
   -0.7219   16.4635   -1.8992 H   0  0  0  0  0  0  0  0  0  0  0  0
   -1.0754   16.5048   -4.2890 H   0  0  0  0  0  0  0  0  0  0  0  0
    0.5385   17.1809   -4.5945 H   0  0  0  0  0  0  0  0  0  0  0  0
   -0.2293   14.4598   -5.0129 H   0  0  0  0  0  0  0  0  0  0  0  0
    1.4412   15.0173   -4.9580 H   0  0  0  0  0  0  0  0  0  0  0  0
   -0.8679   13.7735   -1.5458 H   0  0  0  0  0  0  0  0  0  0  0  0
   -1.5103   14.5066   -3.0547 H   0  0  0  0  0  0  0  0  0  0  0  0
   -0.9444   12.8018   -3.0547 H   0  0  0  0  0  0  0  0  0  0  0  0
    2.5986   13.5669   -3.4008 H   0  0  0  0  0  0  0  0  0  0  0  0
    0.8165   12.2884   -4.7548 H   0  0  0  0  0  0  0  0  0  0  0  0
    2.3272   11.4421   -4.1308 H   0  0  0  0  0  0  0  0  0  0  0  0
    0.0686   10.1050   -3.9143 H   0  0  0  0  0  0  0  0  0  0  0  0
    0.2290   12.2880   -0.5223 H   0  0  0  0  0  0  0  0  0  0  0  0
    2.4002   10.1337   -0.1489 H   0  0  0  0  0  0  0  0  0  0  0  0
    1.9617   11.4563    1.0207 H   0  0  0  0  0  0  0  0  0  0  0  0
    1.0183    9.2672    1.6863 H   0  0  0  0  0  0  0  0  0  0  0  0
   -0.2508   10.5003    1.3192 H   0  0  0  0  0  0  0  0  0  0  0  0
   -0.9132    8.4027    0.3591 H   0  0  0  0  0  0  0  0  0  0  0  0
    1.5730    7.9150    0.1270 H   0  0  0  0  0  0  0  0  0  0  0  0
   -2.0122   10.4690    0.1866 H   0  0  0  0  0  0  0  0  0  0  0  0
   -1.9292   11.4669   -1.3047 H   0  0  0  0  0  0  0  0  0  0  0  0
   -2.8544    9.9273   -1.3047 H   0  0  0  0  0  0  0  0  0  0  0  0
   -1.5470    7.7294   -1.8447 H   0  0  0  0  0  0  0  0  0  0  0  0
   -1.9547    9.0329   -3.0114 H   0  0  0  0  0  0  0  0  0  0  0  0
   -0.3105    8.3095   -3.0114 H   0  0  0  0  0  0  0  0  0  0  0  0
    3.8587   11.7630   -0.5953 H   0  0  0  0  0  0  0  0  0  0  0  0
    3.3749   10.9999   -2.1478 H   0  0  0  0  0  0  0  0  0  0  0  0
    4.1652   12.6130   -2.1478 H   0  0  0  0  0  0  0  0  0  0  0  0
    2.1114   13.4609    0.5064 H   0  0  0  0  0  0  0  0  0  0  0  0
    3.2385   14.2596   -0.7285 H   0  0  0  0  0  0  0  0  0  0  0  0
    0.2647   14.7227   -0.3692 H   0  0  0  0  0  0  0  0  0  0  0  0
    1.6289   15.8734   -0.0824 H   0  0  0  0  0  0  0  0  0  0  0  0
    3.2230   16.1919   -1.6526 H   0  0  0  0  0  0  0  0  0  0  0  0
    3.1451   15.2113   -3.1556 H   0  0  0  0  0  0  0  0  0  0  0  0
    2.5445   16.9042   -3.1556 H   0  0  0  0  0  0  0  0  0  0  0  0
  1  2  1  0
  2  3  1  0
  3  4  1  0
  4  5  1  0
  5  6  1  0
  6  7  1  0
  7  8  1  0
  7  9  1  0
  2 10  1  0
 10 11  1  0
 11 12  1  0
 12 13  1  0
 13 14  1  1
 13 15  1  0
 15 16  1  0
 16 17  1  0
 17 18  2  0
 18 19  1  0
 19 20  1  0
 20 21  1  0
 21 22  1  0
 22 23  1  0
 22 24  1  0
 24 25  1  0
 24 26  1  0
 19 27  1  0
 27 28  1  6
 27 29  1  0
 29 30  1  0
 30 31  1  0
 31 32  1  6
  7  5  1  0
 31 10  1  0
 31 13  1  0
 27 15  1  0
 24 18  1  0
  1 33  1  0
  1 34  1  0
  1 35  1  0
  2 36  1  6
  3 37  1  0
  3 38  1  0
  4 39  1  0
  4 40  1  0
  5 41  1  1
  8 42  1  0
  8 43  1  0
  8 44  1  0
  9 45  1  0
  9 46  1  0
  9 47  1  0
 10 48  1  1
 11 49  1  0
 11 50  1  0
 12 51  1  0
 12 52  1  0
 14 53  1  0
 14 54  1  0
 14 55  1  0
 15 56  1  6
 16 57  1  0
 16 58  1  0
 17 59  1  0
 19 60  1  1
 20 61  1  0
 20 62  1  0
 21 63  1  0
 21 64  1  0
 22 65  1  1
 23 66  1  0
 25 67  1  0
 25 68  1  0
 25 69  1  0
 26 70  1  0
 26 71  1  0
 26 72  1  0
 28 73  1  0
 28 74  1  0
 28 75  1  0
 29 76  1  0
 29 77  1  0
 30 78  1  0
 30 79  1  0
 32 80  1  0
 32 81  1  0
 32 82  1  0
M  END
>  <meeko>  (5) 
{"is_sidechain": [false], "intermolecular_energy": 2.731, "internal_energy": -0.839}

$$$$
EPH_relaxed_0001_pdb2pqr_Repair_11_r2_0001_out
     RDKit          3D

 82 86  0  0  0  0  0  0  0  0999 V2000
   -5.1040    5.8820   -1.6120 C   0  0  0  0  0  0  0  0  0  0  0  0
   -5.3900    7.3810   -1.7400 C   0  0  2  0  0  0  0  0  0  0  0  0
   -5.1580    8.1320   -0.4140 C   0  0  0  0  0  0  0  0  0  0  0  0
   -4.0870    9.2220   -0.5020 C   0  0  0  0  0  0  0  0  0  0  0  0
   -2.8330    8.7160   -1.1480 C   0  0  2  0  0  0  0  0  0  0  0  0
   -1.6790    8.7150   -0.2970 O   0  0  0  0  0  0  0  0  0  0  0  0
   -1.6270    9.5910   -1.4340 C   0  0  0  0  0  0  0  0  0  0  0  0
   -1.6170   11.0460   -1.0820 C   0  0  0  0  0  0  0  0  0  0  0  0
   -0.6590    9.1530   -2.4890 C   0  0  0  0  0  0  0  0  0  0  0  0
   -6.8200    7.5980   -2.2190 C   0  0  1  0  0  0  0  0  0  0  0  0
   -7.1060    6.9100   -3.5800 C   0  0  0  0  0  0  0  0  0  0  0  0
   -8.5780    6.4240   -3.5350 C   0  0  0  0  0  0  0  0  0  0  0  0
   -9.1850    7.1310   -2.3010 C   0  0  1  0  0  0  0  0  0  0  0  0
   -9.5420    8.5670   -2.7980 C   0  0  0  0  0  0  0  0  0  0  0  0
  -10.4130    6.4280   -1.6360 C   0  0  2  0  0  0  0  0  0  0  0  0
  -11.6550    6.2980   -2.5340 C   0  0  0  0  0  0  0  0  0  0  0  0
  -12.6200    7.4350   -2.4560 C   0  0  0  0  0  0  0  0  0  0  0  0
  -12.6430    8.3770   -1.4950 C   0  0  0  0  0  0  0  0  0  0  0  0
  -11.6920    8.3000   -0.2940 C   0  0  1  0  0  0  0  0  0  0  0  0
  -12.4850    8.5640    1.0130 C   0  0  0  0  0  0  0  0  0  0  0  0
  -13.2650    9.8740    0.9690 C   0  0  0  0  0  0  0  0  0  0  0  0
  -14.2420    9.8880   -0.2040 C   0  0  2  0  0  0  0  0  0  0  0  0
  -15.2540    8.9030    0.0270 O   0  0  0  0  0  0  0  0  0  0  0  0
  -13.5580    9.6240   -1.5740 C   0  0  0  0  0  0  0  0  0  0  0  0
  -12.6850   10.8430   -1.9640 C   0  0  0  0  0  0  0  0  0  0  0  0
  -14.6700    9.5250   -2.6520 C   0  0  0  0  0  0  0  0  0  0  0  0
  -10.7890    6.9950   -0.2070 C   0  0  1  0  0  0  0  0  0  0  0  0
  -11.5620    5.8610    0.5320 C   0  0  0  0  0  0  0  0  0  0  0  0
   -9.5160    7.3070    0.6660 C   0  0  0  0  0  0  0  0  0  0  0  0
   -8.2940    7.8890   -0.0690 C   0  0  0  0  0  0  0  0  0  0  0  0
   -7.9610    7.0650   -1.3160 C   0  0  2  0  0  0  0  0  0  0  0  0
   -7.5760    5.6210   -0.8460 C   0  0  0  0  0  0  0  0  0  0  0  0
   -5.0518    5.6082   -0.5479 H   0  0  0  0  0  0  0  0  0  0  0  0
   -5.9096    5.3122   -2.0981 H   0  0  0  0  0  0  0  0  0  0  0  0
   -4.1452    5.6488   -2.0981 H   0  0  0  0  0  0  0  0  0  0  0  0
   -4.6848    7.7906   -2.4782 H   0  0  0  0  0  0  0  0  0  0  0  0
   -6.1057    8.6004   -0.1100 H   0  0  0  0  0  0  0  0  0  0  0  0
   -4.8022    7.3907    0.3166 H   0  0  0  0  0  0  0  0  0  0  0  0
   -4.4800   10.0609   -1.0951 H   0  0  0  0  0  0  0  0  0  0  0  0
   -3.8402    9.5437    0.5206 H   0  0  0  0  0  0  0  0  0  0  0  0
   -3.4100    8.0251   -1.7802 H   0  0  0  0  0  0  0  0  0  0  0  0
   -1.6162   11.1585    0.0122 H   0  0  0  0  0  0  0  0  0  0  0  0
   -0.7156   11.5181   -1.4998 H   0  0  0  0  0  0  0  0  0  0  0  0
   -2.5118   11.5305   -1.4998 H   0  0  0  0  0  0  0  0  0  0  0  0
    0.2438    8.7445   -2.0114 H   0  0  0  0  0  0  0  0  0  0  0  0
   -1.1251    8.3781   -3.1153 H   0  0  0  0  0  0  0  0  0  0  0  0
   -0.3846   10.0146   -3.1153 H   0  0  0  0  0  0  0  0  0  0  0  0
   -6.8412    8.6975   -2.2426 H   0  0  0  0  0  0  0  0  0  0  0  0
   -6.9687    7.6268   -4.4030 H   0  0  0  0  0  0  0  0  0  0  0  0
   -6.4175    6.0692   -3.7499 H   0  0  0  0  0  0  0  0  0  0  0  0
   -9.1116    6.7163   -4.4514 H   0  0  0  0  0  0  0  0  0  0  0  0
   -8.6536    5.3287   -3.4672 H   0  0  0  0  0  0  0  0  0  0  0  0
   -9.7055    9.2248   -1.9316 H   0  0  0  0  0  0  0  0  0  0  0  0
   -8.7144    8.9608   -3.4063 H   0  0  0  0  0  0  0  0  0  0  0  0
  -10.4576    8.5274   -3.4063 H   0  0  0  0  0  0  0  0  0  0  0  0
  -10.0449    5.4024   -1.4853 H   0  0  0  0  0  0  0  0  0  0  0  0
  -11.3136    6.2128   -3.5762 H   0  0  0  0  0  0  0  0  0  0  0  0
  -12.1989    5.4119   -2.1749 H   0  0  0  0  0  0  0  0  0  0  0  0
  -13.3762    7.5089   -3.2515 H   0  0  0  0  0  0  0  0  0  0  0  0
  -10.9469    9.0950   -0.4452 H   0  0  0  0  0  0  0  0  0  0  0  0
  -13.1932    7.7369    1.1690 H   0  0  0  0  0  0  0  0  0  0  0  0
  -11.7585    8.6353    1.8359 H   0  0  0  0  0  0  0  0  0  0  0  0
  -13.8273    9.9899    1.9073 H   0  0  0  0  0  0  0  0  0  0  0  0
  -12.5527   10.7027    0.8427 H   0  0  0  0  0  0  0  0  0  0  0  0
  -14.6759   10.8972   -0.2600 H   0  0  0  0  0  0  0  0  0  0  0  0
  -16.0860    9.3730    0.2080 H   0  0  0  0  0  0  0  0  0  0  0  0
  -12.3264   11.3438   -1.0526 H   0  0  0  0  0  0  0  0  0  0  0  0
  -11.8242   10.5024   -2.5581 H   0  0  0  0  0  0  0  0  0  0  0  0
  -13.2846   11.5483   -2.5581 H   0  0  0  0  0  0  0  0  0  0  0  0
  -15.6503    9.4377   -2.1606 H   0  0  0  0  0  0  0  0  0  0  0  0
  -14.6536   10.4282   -3.2797 H   0  0  0  0  0  0  0  0  0  0  0  0
  -14.4943    8.6389   -3.2797 H   0  0  0  0  0  0  0  0  0  0  0  0
  -11.4669    6.0005    1.6190 H   0  0  0  0  0  0  0  0  0  0  0  0
  -12.6244    5.8970    0.2493 H   0  0  0  0  0  0  0  0  0  0  0  0
  -11.1402    4.8852    0.2493 H   0  0  0  0  0  0  0  0  0  0  0  0
   -9.8130    8.0291    1.4409 H   0  0  0  0  0  0  0  0  0  0  0  0
   -9.1833    6.3306    1.0480 H   0  0  0  0  0  0  0  0  0  0  0  0
   -8.5142    8.9239   -0.3697 H   0  0  0  0  0  0  0  0  0  0  0  0
   -7.4297    7.8613    0.6109 H   0  0  0  0  0  0  0  0  0  0  0  0
   -7.5660    5.5837    0.2533 H   0  0  0  0  0  0  0  0  0  0  0  0
   -8.3136    4.9013   -1.2307 H   0  0  0  0  0  0  0  0  0  0  0  0
   -6.5780    5.3641   -1.2307 H   0  0  0  0  0  0  0  0  0  0  0  0
  1  2  1  0
  2  3  1  0
  3  4  1  0
  4  5  1  0
  5  6  1  0
  6  7  1  0
  7  8  1  0
  7  9  1  0
  2 10  1  0
 10 11  1  0
 11 12  1  0
 12 13  1  0
 13 14  1  6
 13 15  1  0
 15 16  1  0
 16 17  1  0
 17 18  2  0
 18 19  1  0
 19 20  1  0
 20 21  1  0
 21 22  1  0
 22 23  1  0
 22 24  1  0
 24 25  1  0
 24 26  1  0
 19 27  1  0
 27 28  1  1
 27 29  1  0
 29 30  1  0
 30 31  1  0
 31 32  1  1
  7  5  1  0
 31 10  1  0
 31 13  1  0
 27 15  1  0
 24 18  1  0
  1 33  1  0
  1 34  1  0
  1 35  1  0
  2 36  1  6
  3 37  1  0
  3 38  1  0
  4 39  1  0
  4 40  1  0
  5 41  1  6
  8 42  1  0
  8 43  1  0
  8 44  1  0
  9 45  1  0
  9 46  1  0
  9 47  1  0
 10 48  1  6
 11 49  1  0
 11 50  1  0
 12 51  1  0
 12 52  1  0
 14 53  1  0
 14 54  1  0
 14 55  1  0
 15 56  1  1
 16 57  1  0
 16 58  1  0
 17 59  1  0
 19 60  1  6
 20 61  1  0
 20 62  1  0
 21 63  1  0
 21 64  1  0
 22 65  1  6
 23 66  1  0
 25 67  1  0
 25 68  1  0
 25 69  1  0
 26 70  1  0
 26 71  1  0
 26 72  1  0
 28 73  1  0
 28 74  1  0
 28 75  1  0
 29 76  1  0
 29 77  1  0
 30 78  1  0
 30 79  1  0
 32 80  1  0
 32 81  1  0
 32 82  1  0
M  END
>  <meeko>  (6) 
{"is_sidechain": [false], "intermolecular_energy": 2.731, "internal_energy": -0.839}

$$$$
EPH_relaxed_0001_pdb2pqr_Repair_11_r2_0001_out
     RDKit          3D

 82 86  0  0  0  0  0  0  0  0999 V2000
    0.4350    8.7950   -2.3610 C   0  0  0  0  0  0  0  0  0  0  0  0
    1.1780    9.9380   -3.0580 C   0  0  2  0  0  0  0  0  0  0  0  0
    2.6790    9.9570   -2.7030 C   0  0  0  0  0  0  0  0  0  0  0  0
    3.5620   10.5620   -3.7970 C   0  0  0  0  0  0  0  0  0  0  0  0
    4.9610   10.7990   -3.3120 C   0  0  2  0  0  0  0  0  0  0  0  0
    5.5560   12.0190   -3.7740 O   0  0  0  0  0  0  0  0  0  0  0  0
    6.1730   10.8030   -4.2250 C   0  0  0  0  0  0  0  0  0  0  0  0
    6.0430   10.5640   -5.6960 C   0  0  0  0  0  0  0  0  0  0  0  0
    7.5210   10.5520   -3.6240 C   0  0  0  0  0  0  0  0  0  0  0  0
    0.5390   11.2720   -2.6930 C   0  0  1  0  0  0  0  0  0  0  0  0
   -0.8380   11.1050   -1.9980 C   0  0  0  0  0  0  0  0  0  0  0  0
   -0.9540   12.2460   -0.9550 C   0  0  0  0  0  0  0  0  0  0  0  0
    0.1960   13.2180   -1.3100 C   0  0  1  0  0  0  0  0  0  0  0  0
   -0.3540   14.0730   -2.4950 C   0  0  0  0  0  0  0  0  0  0  0  0
    0.7260   14.1170   -0.1460 C   0  0  2  0  0  0  0  0  0  0  0  0
   -0.3050   15.0940    0.4440 C   0  0  0  0  0  0  0  0  0  0  0  0
   -0.3490   16.4410   -0.1990 C   0  0  0  0  0  0  0  0  0  0  0  0
    0.5930   16.9480   -1.0160 C   0  0  0  0  0  0  0  0  0  0  0  0
    1.8940   16.1830   -1.2890 C   0  0  1  0  0  0  0  0  0  0  0  0
    3.1000   17.1500   -1.1600 C   0  0  0  0  0  0  0  0  0  0  0  0
    2.9550   18.3870   -2.0420 C   0  0  0  0  0  0  0  0  0  0  0  0
    1.6790   19.1530   -1.7010 C   0  0  2  0  0  0  0  0  0  0  0  0
    1.8040   19.6940   -0.3830 O   0  0  0  0  0  0  0  0  0  0  0  0
    0.3970   18.2770   -1.7870 C   0  0  0  0  0  0  0  0  0  0  0  0
    0.0950   17.9400   -3.2680 C   0  0  0  0  0  0  0  0  0  0  0  0
   -0.7980   19.1300   -1.2830 C   0  0  0  0  0  0  0  0  0  0  0  0
    2.0970   14.8420   -0.4600 C   0  0  1  0  0  0  0  0  0  0  0  0
    2.7570   15.1610    0.9160 C   0  0  0  0  0  0  0  0  0  0  0  0
    3.1050   13.9090   -1.2300 C   0  0  0  0  0  0  0  0  0  0  0  0
    2.5050   12.9590   -2.2840 C   0  0  0  0  0  0  0  0  0  0  0  0
    1.3130   12.1870   -1.7110 C   0  0  2  0  0  0  0  0  0  0  0  0
    1.8390   11.3000   -0.5310 C   0  0  0  0  0  0  0  0  0  0  0  0
    0.5144    8.9171   -1.2707 H   0  0  0  0  0  0  0  0  0  0  0  0
   -0.6246    8.8129   -2.6558 H   0  0  0  0  0  0  0  0  0  0  0  0
    0.8814    7.8339   -2.6558 H   0  0  0  0  0  0  0  0  0  0  0  0
    1.0978    9.7722   -4.1425 H   0  0  0  0  0  0  0  0  0  0  0  0
    2.8112   10.5470   -1.7841 H   0  0  0  0  0  0  0  0  0  0  0  0
    2.9933    8.9103   -2.5783 H   0  0  0  0  0  0  0  0  0  0  0  0
    3.5934    9.8713   -4.6525 H   0  0  0  0  0  0  0  0  0  0  0  0
    3.1312   11.5312   -4.0888 H   0  0  0  0  0  0  0  0  0  0  0  0
    4.7488   10.2734   -2.3693 H   0  0  0  0  0  0  0  0  0  0  0  0
    5.5239    9.6096   -5.8679 H   0  0  0  0  0  0  0  0  0  0  0  0
    5.4658   11.3825   -6.1509 H   0  0  0  0  0  0  0  0  0  0  0  0
    7.0438   10.5242   -6.1509 H   0  0  0  0  0  0  0  0  0  0  0  0
    7.4418   10.5667   -2.5270 H   0  0  0  0  0  0  0  0  0  0  0  0
    7.8914    9.5695   -3.9517 H   0  0  0  0  0  0  0  0  0  0  0  0
    8.2202   11.3354   -3.9517 H   0  0  0  0  0  0  0  0  0  0  0  0
    0.5018   11.7366   -3.6894 H   0  0  0  0  0  0  0  0  0  0  0  0
   -1.6479   11.1845   -2.7381 H   0  0  0  0  0  0  0  0  0  0  0  0
   -0.9202   10.1196   -1.5161 H   0  0  0  0  0  0  0  0  0  0  0  0
   -1.9281   12.7502   -1.0379 H   0  0  0  0  0  0  0  0  0  0  0  0
   -0.8828   11.8754    0.0782 H   0  0  0  0  0  0  0  0  0  0  0  0
   -0.9090   14.9358   -2.0980 H   0  0  0  0  0  0  0  0  0  0  0  0
    0.4851   14.4287   -3.1109 H   0  0  0  0  0  0  0  0  0  0  0  0
   -1.0256   13.4569   -3.1109 H   0  0  0  0  0  0  0  0  0  0  0  0
    0.9286   13.3821    0.6471 H   0  0  0  0  0  0  0  0  0  0  0  0
   -1.3010   14.6376    0.3451 H   0  0  0  0  0  0  0  0  0  0  0  0
    0.0002   15.2648    1.4869 H   0  0  0  0  0  0  0  0  0  0  0  0
   -1.2248   17.0720    0.0128 H   0  0  0  0  0  0  0  0  0  0  0  0
    1.8188   15.8150   -2.3229 H   0  0  0  0  0  0  0  0  0  0  0  0
    3.1831   17.4722   -0.1115 H   0  0  0  0  0  0  0  0  0  0  0  0
    3.9990   16.6085   -1.4894 H   0  0  0  0  0  0  0  0  0  0  0  0
    3.8226   19.0447   -1.8853 H   0  0  0  0  0  0  0  0  0  0  0  0
    2.9015   18.0652   -3.0925 H   0  0  0  0  0  0  0  0  0  0  0  0
    1.5642   19.9516   -2.4487 H   0  0  0  0  0  0  0  0  0  0  0  0
    0.9070   19.8480   -0.0410 H   0  0  0  0  0  0  0  0  0  0  0  0
   -0.6384   17.1216   -3.3156 H   0  0  0  0  0  0  0  0  0  0  0  0
   -0.3144   18.8289   -3.7702 H   0  0  0  0  0  0  0  0  0  0  0  0
    1.0233   17.6301   -3.7702 H   0  0  0  0  0  0  0  0  0  0  0  0
   -0.8062   19.1359   -0.1830 H   0  0  0  0  0  0  0  0  0  0  0  0
   -0.6955   20.1603   -1.6544 H   0  0  0  0  0  0  0  0  0  0  0  0
   -1.7391   18.6983   -1.6544 H   0  0  0  0  0  0  0  0  0  0  0  0
    2.0881   14.8377    1.7272 H   0  0  0  0  0  0  0  0  0  0  0  0
    3.7151   14.6265    0.9958 H   0  0  0  0  0  0  0  0  0  0  0  0
    2.9334   16.2438    0.9958 H   0  0  0  0  0  0  0  0  0  0  0  0
    3.8333   14.5558   -1.7411 H   0  0  0  0  0  0  0  0  0  0  0  0
    3.5339   13.2509   -0.4600 H   0  0  0  0  0  0  0  0  0  0  0  0
    2.1693   13.5483   -3.1500 H   0  0  0  0  0  0  0  0  0  0  0  0
    3.2780   12.2370   -2.5859 H   0  0  0  0  0  0  0  0  0  0  0  0
    1.5638   11.7641    0.4275 H   0  0  0  0  0  0  0  0  0  0  0  0
    1.3887   10.2985   -0.5961 H   0  0  0  0  0  0  0  0  0  0  0  0
    2.9338   11.2147   -0.5961 H   0  0  0  0  0  0  0  0  0  0  0  0
  1  2  1  0
  2  3  1  0
  3  4  1  0
  4  5  1  0
  5  6  1  0
  6  7  1  0
  7  8  1  0
  7  9  1  0
  2 10  1  0
 10 11  1  0
 11 12  1  0
 12 13  1  0
 13 14  1  6
 13 15  1  0
 15 16  1  0
 16 17  1  0
 17 18  2  0
 18 19  1  0
 19 20  1  0
 20 21  1  0
 21 22  1  0
 22 23  1  0
 22 24  1  0
 24 25  1  0
 24 26  1  0
 19 27  1  0
 27 28  1  1
 27 29  1  0
 29 30  1  0
 30 31  1  0
 31 32  1  1
  7  5  1  0
 31 10  1  0
 31 13  1  0
 27 15  1  0
 24 18  1  0
  1 33  1  0
  1 34  1  0
  1 35  1  0
  2 36  1  6
  3 37  1  0
  3 38  1  0
  4 39  1  0
  4 40  1  0
  5 41  1  1
  8 42  1  0
  8 43  1  0
  8 44  1  0
  9 45  1  0
  9 46  1  0
  9 47  1  0
 10 48  1  6
 11 49  1  0
 11 50  1  0
 12 51  1  0
 12 52  1  0
 14 53  1  0
 14 54  1  0
 14 55  1  0
 15 56  1  1
 16 57  1  0
 16 58  1  0
 17 59  1  0
 19 60  1  6
 20 61  1  0
 20 62  1  0
 21 63  1  0
 21 64  1  0
 22 65  1  6
 23 66  1  0
 25 67  1  0
 25 68  1  0
 25 69  1  0
 26 70  1  0
 26 71  1  0
 26 72  1  0
 28 73  1  0
 28 74  1  0
 28 75  1  0
 29 76  1  0
 29 77  1  0
 30 78  1  0
 30 79  1  0
 32 80  1  0
 32 81  1  0
 32 82  1  0
M  END
>  <meeko>  (7) 
{"is_sidechain": [false], "intermolecular_energy": 2.731, "internal_energy": -0.839}

$$$$
EPH_relaxed_0001_pdb2pqr_Repair_11_r2_0001_out
     RDKit          3D

 82 86  0  0  0  0  0  0  0  0999 V2000
    2.6420   19.0810   -2.1060 C   0  0  0  0  0  0  0  0  0  0  0  0
    1.6400   19.1130   -0.9490 C   0  0  2  0  0  0  0  0  0  0  0  0
    2.1850   19.8820    0.2710 C   0  0  0  0  0  0  0  0  0  0  0  0
    2.7060   18.9740    1.3880 C   0  0  0  0  0  0  0  0  0  0  0  0
    4.1660   19.1960    1.6460 C   0  0  2  0  0  0  0  0  0  0  0  0
    4.7880   18.1940    2.4620 O   0  0  0  0  0  0  0  0  0  0  0  0
    4.7330   19.5190    3.0160 C   0  0  0  0  0  0  0  0  0  0  0  0
    3.8500   19.6400    4.2180 C   0  0  0  0  0  0  0  0  0  0  0  0
    6.0670   20.1940    3.0960 C   0  0  0  0  0  0  0  0  0  0  0  0
    1.2680   17.6910   -0.5450 C   0  0  1  0  0  0  0  0  0  0  0  0
   -0.0280   17.6320    0.3070 C   0  0  0  0  0  0  0  0  0  0  0  0
   -0.7600   16.3210   -0.0820 C   0  0  0  0  0  0  0  0  0  0  0  0
    0.2860   15.5150   -0.8880 C   0  0  1  0  0  0  0  0  0  0  0  0
    1.1890   14.8390    0.1920 C   0  0  0  0  0  0  0  0  0  0  0  0
   -0.2790   14.4700   -1.9040 C   0  0  2  0  0  0  0  0  0  0  0  0
   -1.1020   13.3300   -1.2770 C   0  0  0  0  0  0  0  0  0  0  0  0
   -0.3210   12.1170   -0.8940 C   0  0  0  0  0  0  0  0  0  0  0  0
    0.9300   11.8310   -1.3010 C   0  0  0  0  0  0  0  0  0  0  0  0
    1.6530   12.7270   -2.3150 C   0  0  1  0  0  0  0  0  0  0  0  0
    2.3120   11.8450   -3.4070 C   0  0  0  0  0  0  0  0  0  0  0  0
    3.2260   10.7730   -2.8210 C   0  0  0  0  0  0  0  0  0  0  0  0
    2.4570    9.8660   -1.8630 C   0  0  2  0  0  0  0  0  0  0  0  0
    1.4960    9.1150   -2.6100 O   0  0  0  0  0  0  0  0  0  0  0  0
    1.7410   10.6450   -0.7240 C   0  0  0  0  0  0  0  0  0  0  0  0
    2.7940   11.2100    0.2610 C   0  0  0  0  0  0  0  0  0  0  0  0
    0.8900    9.6300    0.0860 C   0  0  0  0  0  0  0  0  0  0  0  0
    0.7930   13.9150   -2.9270 C   0  0  1  0  0  0  0  0  0  0  0  0
    0.0010   13.4120   -4.1720 C   0  0  0  0  0  0  0  0  0  0  0  0
    1.7650   15.0400   -3.4440 C   0  0  0  0  0  0  0  0  0  0  0  0
    2.1930   16.1110   -2.4230 C   0  0  0  0  0  0  0  0  0  0  0  0
    0.9780   16.6810   -1.6840 C   0  0  2  0  0  0  0  0  0  0  0  0
    0.0630   17.3870   -2.7410 C   0  0  0  0  0  0  0  0  0  0  0  0
    3.6654   19.0483   -1.7040 H   0  0  0  0  0  0  0  0  0  0  0  0
    2.4616   18.1882   -2.7227 H   0  0  0  0  0  0  0  0  0  0  0  0
    2.5190   19.9835   -2.7227 H   0  0  0  0  0  0  0  0  0  0  0  0
    0.7447   19.6462   -1.3013 H   0  0  0  0  0  0  0  0  0  0  0  0
    3.0100   20.5272   -0.0653 H   0  0  0  0  0  0  0  0  0  0  0  0
    1.3461   20.4574    0.6894 H   0  0  0  0  0  0  0  0  0  0  0  0
    2.1447   19.1850    2.3102 H   0  0  0  0  0  0  0  0  0  0  0  0
    2.5679   17.9290    1.0735 H   0  0  0  0  0  0  0  0  0  0  0  0
    4.2918   19.6750    0.6638 H   0  0  0  0  0  0  0  0  0  0  0  0
    4.4590   19.5565    5.1302 H   0  0  0  0  0  0  0  0  0  0  0  0
    3.3429   20.6160    4.2037 H   0  0  0  0  0  0  0  0  0  0  0  0
    3.0990   18.8364    4.2037 H   0  0  0  0  0  0  0  0  0  0  0  0
    6.3443   20.3343    4.1512 H   0  0  0  0  0  0  0  0  0  0  0  0
    6.8239   19.5704    2.5978 H   0  0  0  0  0  0  0  0  0  0  0  0
    6.0129   21.1732    2.5978 H   0  0  0  0  0  0  0  0  0  0  0  0
    2.1867   17.4040   -0.0124 H   0  0  0  0  0  0  0  0  0  0  0  0
    0.2229   17.6223    1.3780 H   0  0  0  0  0  0  0  0  0  0  0  0
   -0.6639   18.5098    0.1199 H   0  0  0  0  0  0  0  0  0  0  0  0
   -1.0687   15.7671    0.8168 H   0  0  0  0  0  0  0  0  0  0  0  0
   -1.6766   16.5105   -0.6599 H   0  0  0  0  0  0  0  0  0  0  0  0
    0.8269   15.1101    1.1947 H   0  0  0  0  0  0  0  0  0  0  0  0
    1.1498   13.7464    0.0710 H   0  0  0  0  0  0  0  0  0  0  0  0
    2.2263   15.1844    0.0710 H   0  0  0  0  0  0  0  0  0  0  0  0
   -0.9942   15.0695   -2.4864 H   0  0  0  0  0  0  0  0  0  0  0  0
   -1.5893   13.7206   -0.3715 H   0  0  0  0  0  0  0  0  0  0  0  0
   -1.8108   13.0038   -2.0523 H   0  0  0  0  0  0  0  0  0  0  0  0
   -0.8090   11.3955   -0.2222 H   0  0  0  0  0  0  0  0  0  0  0  0
    2.4293   13.2625   -1.7489 H   0  0  0  0  0  0  0  0  0  0  0  0
    1.5187   11.3525   -3.9886 H   0  0  0  0  0  0  0  0  0  0  0  0
    2.9292   12.5011   -4.0383 H   0  0  0  0  0  0  0  0  0  0  0  0
    3.6389   10.1650   -3.6394 H   0  0  0  0  0  0  0  0  0  0  0  0
    4.0354   11.2673   -2.2637 H   0  0  0  0  0  0  0  0  0  0  0  0
    3.1885    9.2030   -1.3779 H   0  0  0  0  0  0  0  0  0  0  0  0
    1.0850    8.4760   -2.0030 H   0  0  0  0  0  0  0  0  0  0  0  0
    2.4621   11.0319    1.2945 H   0  0  0  0  0  0  0  0  0  0  0  0
    3.7586   10.7083    0.0941 H   0  0  0  0  0  0  0  0  0  0  0  0
    2.9093   12.2911    0.0941 H   0  0  0  0  0  0  0  0  0  0  0  0
    1.0366    9.8049    1.1621 H   0  0  0  0  0  0  0  0  0  0  0  0
   -0.1730    9.7600   -0.1651 H   0  0  0  0  0  0  0  0  0  0  0  0
    1.2035    8.6059   -0.1651 H   0  0  0  0  0  0  0  0  0  0  0  0
   -0.8844   12.8497   -3.8407 H   0  0  0  0  0  0  0  0  0  0  0  0
   -0.3172   14.2739   -4.7769 H   0  0  0  0  0  0  0  0  0  0  0  0
    0.6458   12.7575   -4.7769 H   0  0  0  0  0  0  0  0  0  0  0  0
    2.6773   14.5481   -3.8125 H   0  0  0  0  0  0  0  0  0  0  0  0
    1.1935   15.5846   -4.2100 H   0  0  0  0  0  0  0  0  0  0  0  0
    2.8786   15.6576   -1.6920 H   0  0  0  0  0  0  0  0  0  0  0  0
    2.6915   16.9301   -2.9621 H   0  0  0  0  0  0  0  0  0  0  0  0
   -0.7054   17.9799   -2.2232 H   0  0  0  0  0  0  0  0  0  0  0  0
    0.6745   18.0496   -3.3711 H   0  0  0  0  0  0  0  0  0  0  0  0
   -0.4228   16.6274   -3.3711 H   0  0  0  0  0  0  0  0  0  0  0  0
  1  2  1  0
  2  3  1  0
  3  4  1  0
  4  5  1  0
  5  6  1  0
  6  7  1  0
  7  8  1  0
  7  9  1  0
  2 10  1  0
 10 11  1  0
 11 12  1  0
 12 13  1  0
 13 14  1  1
 13 15  1  0
 15 16  1  0
 16 17  1  0
 17 18  2  0
 18 19  1  0
 19 20  1  0
 20 21  1  0
 21 22  1  0
 22 23  1  0
 22 24  1  0
 24 25  1  0
 24 26  1  0
 19 27  1  0
 27 28  1  6
 27 29  1  0
 29 30  1  0
 30 31  1  0
 31 32  1  6
  7  5  1  0
 31 10  1  0
 31 13  1  0
 27 15  1  0
 24 18  1  0
  1 33  1  0
  1 34  1  0
  1 35  1  0
  2 36  1  6
  3 37  1  0
  3 38  1  0
  4 39  1  0
  4 40  1  0
  5 41  1  6
  8 42  1  0
  8 43  1  0
  8 44  1  0
  9 45  1  0
  9 46  1  0
  9 47  1  0
 10 48  1  1
 11 49  1  0
 11 50  1  0
 12 51  1  0
 12 52  1  0
 14 53  1  0
 14 54  1  0
 14 55  1  0
 15 56  1  6
 16 57  1  0
 16 58  1  0
 17 59  1  0
 19 60  1  1
 20 61  1  0
 20 62  1  0
 21 63  1  0
 21 64  1  0
 22 65  1  1
 23 66  1  0
 25 67  1  0
 25 68  1  0
 25 69  1  0
 26 70  1  0
 26 71  1  0
 26 72  1  0
 28 73  1  0
 28 74  1  0
 28 75  1  0
 29 76  1  0
 29 77  1  0
 30 78  1  0
 30 79  1  0
 32 80  1  0
 32 81  1  0
 32 82  1  0
M  END
>  <meeko>  (8) 
{"is_sidechain": [false], "intermolecular_energy": 2.731, "internal_energy": -0.839}

$$$$
EPH_relaxed_0001_pdb2pqr_Repair_11_r2_0001_out
     RDKit          3D

 82 86  0  0  0  0  0  0  0  0999 V2000
   -0.1140    9.3020   -2.1800 C   0  0  0  0  0  0  0  0  0  0  0  0
    0.9580   10.2780   -2.6730 C   0  0  2  0  0  0  0  0  0  0  0  0
    2.3470    9.6150   -2.7700 C   0  0  0  0  0  0  0  0  0  0  0  0
    3.2710   10.2700   -3.8000 C   0  0  0  0  0  0  0  0  0  0  0  0
    4.6550   10.4640   -3.2590 C   0  0  2  0  0  0  0  0  0  0  0  0
    5.1920   11.7800   -3.4470 O   0  0  0  0  0  0  0  0  0  0  0  0
    5.8680   10.7150   -4.1350 C   0  0  0  0  0  0  0  0  0  0  0  0
    5.7530   10.7850   -5.6260 C   0  0  0  0  0  0  0  0  0  0  0  0
    7.2250   10.4060   -3.5840 C   0  0  0  0  0  0  0  0  0  0  0  0
    1.0220   11.4890   -1.7500 C   0  0  1  0  0  0  0  0  0  0  0  0
    2.1070   11.3450   -0.6500 C   0  0  0  0  0  0  0  0  0  0  0  0
    2.6880   12.7610   -0.4060 C   0  0  0  0  0  0  0  0  0  0  0  0
    1.7030   13.7150   -1.1220 C   0  0  1  0  0  0  0  0  0  0  0  0
    0.5180   13.8920   -0.1210 C   0  0  0  0  0  0  0  0  0  0  0  0
    2.2840   15.0930   -1.5780 C   0  0  2  0  0  0  0  0  0  0  0  0
    2.7860   15.9990   -0.4400 C   0  0  0  0  0  0  0  0  0  0  0  0
    1.7700   16.9320    0.1280 C   0  0  0  0  0  0  0  0  0  0  0  0
    0.5900   17.2450   -0.4410 C   0  0  0  0  0  0  0  0  0  0  0  0
    0.2210   16.7120   -1.8310 C   0  0  1  0  0  0  0  0  0  0  0  0
   -0.3470   17.8680   -2.6950 C   0  0  0  0  0  0  0  0  0  0  0  0
   -1.5090   18.5880   -2.0180 C   0  0  0  0  0  0  0  0  0  0  0  0
   -1.0870   19.1540   -0.6650 C   0  0  2  0  0  0  0  0  0  0  0  0
   -0.1280   20.1940   -0.8800 O   0  0  0  0  0  0  0  0  0  0  0  0
   -0.4900   18.0820    0.2880 C   0  0  0  0  0  0  0  0  0  0  0  0
   -1.6110   17.1230    0.7610 C   0  0  0  0  0  0  0  0  0  0  0  0
    0.0250   18.8070    1.5610 C   0  0  0  0  0  0  0  0  0  0  0  0
    1.3540   15.8880   -2.5810 C   0  0  1  0  0  0  0  0  0  0  0  0
    2.2820   16.8600   -3.3730 C   0  0  0  0  0  0  0  0  0  0  0  0
    0.6840   14.9460   -3.6500 C   0  0  0  0  0  0  0  0  0  0  0  0
    0.2390   13.5530   -3.1660 C   0  0  0  0  0  0  0  0  0  0  0  0
    1.3640   12.8560   -2.3940 C   0  0  2  0  0  0  0  0  0  0  0  0
    2.5620   12.6450   -3.3810 C   0  0  0  0  0  0  0  0  0  0  0  0
   -0.1238    9.2931   -1.0801 H   0  0  0  0  0  0  0  0  0  0  0  0
   -1.0988    9.6200   -2.5529 H   0  0  0  0  0  0  0  0  0  0  0  0
    0.1105    8.2918   -2.5529 H   0  0  0  0  0  0  0  0  0  0  0  0
    0.6737   10.5976   -3.6864 H   0  0  0  0  0  0  0  0  0  0  0  0
    2.8297    9.6740   -1.7833 H   0  0  0  0  0  0  0  0  0  0  0  0
    2.1857    8.5772   -3.0969 H   0  0  0  0  0  0  0  0  0  0  0  0
    3.3235    9.6275   -4.6913 H   0  0  0  0  0  0  0  0  0  0  0  0
    2.8590   11.2587   -4.0504 H   0  0  0  0  0  0  0  0  0  0  0  0
    4.4656    9.7428   -2.4503 H   0  0  0  0  0  0  0  0  0  0  0  0
    4.8425   11.3392   -5.8979 H   0  0  0  0  0  0  0  0  0  0  0  0
    6.6330   11.3008   -6.0378 H   0  0  0  0  0  0  0  0  0  0  0  0
    5.6990    9.7664   -6.0378 H   0  0  0  0  0  0  0  0  0  0  0  0
    7.1852   10.4151   -2.4848 H   0  0  0  0  0  0  0  0  0  0  0  0
    7.5441    9.4122   -3.9312 H   0  0  0  0  0  0  0  0  0  0  0  0
    7.9429   11.1637   -3.9312 H   0  0  0  0  0  0  0  0  0  0  0  0
   -0.0143   11.4950   -1.3812 H   0  0  0  0  0  0  0  0  0  0  0  0
    1.6584   10.9551    0.2756 H   0  0  0  0  0  0  0  0  0  0  0  0
    2.8948   10.6435   -0.9621 H   0  0  0  0  0  0  0  0  0  0  0  0
    2.7307   12.9831    0.6705 H   0  0  0  0  0  0  0  0  0  0  0  0
    3.7159   12.8613   -0.7846 H   0  0  0  0  0  0  0  0  0  0  0  0
    0.8973   13.8353    0.9100 H   0  0  0  0  0  0  0  0  0  0  0  0
    0.0436   14.8710   -0.2839 H   0  0  0  0  0  0  0  0  0  0  0  0
   -0.2218   13.0944   -0.2839 H   0  0  0  0  0  0  0  0  0  0  0  0
    3.1811   14.7956   -2.1408 H   0  0  0  0  0  0  0  0  0  0  0  0
    3.1471   15.3534    0.3741 H   0  0  0  0  0  0  0  0  0  0  0  0
    3.5693   16.6338   -0.8799 H   0  0  0  0  0  0  0  0  0  0  0  0
    2.0044   17.4044    1.0934 H   0  0  0  0  0  0  0  0  0  0  0  0
   -0.5569   15.9514   -1.6684 H   0  0  0  0  0  0  0  0  0  0  0  0
    0.4566   18.5951   -2.8834 H   0  0  0  0  0  0  0  0  0  0  0  0
   -0.7250   17.4307   -3.6309 H   0  0  0  0  0  0  0  0  0  0  0  0
   -1.8467   19.4123   -2.6634 H   0  0  0  0  0  0  0  0  0  0  0  0
   -2.3234   17.8661   -1.8577 H   0  0  0  0  0  0  0  0  0  0  0  0
   -1.9910   19.5422   -0.1730 H   0  0  0  0  0  0  0  0  0  0  0  0
    0.0460   20.6160   -0.0210 H   0  0  0  0  0  0  0  0  0  0  0  0
   -1.6357   17.1019    1.8605 H   0  0  0  0  0  0  0  0  0  0  0  0
   -2.5805   17.4756    0.3792 H   0  0  0  0  0  0  0  0  0  0  0  0
   -1.4128   16.1106    0.3792 H   0  0  0  0  0  0  0  0  0  0  0  0
   -0.3457   18.2851    2.4555 H   0  0  0  0  0  0  0  0  0  0  0  0
    1.1250   18.8046    1.5646 H   0  0  0  0  0  0  0  0  0  0  0  0
   -0.3394   19.8449    1.5646 H   0  0  0  0  0  0  0  0  0  0  0  0
    2.8637   17.4693   -2.6657 H   0  0  0  0  0  0  0  0  0  0  0  0
    2.9679   16.2778   -4.0059 H   0  0  0  0  0  0  0  0  0  0  0  0
    1.6687   17.5183   -4.0059 H   0  0  0  0  0  0  0  0  0  0  0  0
   -0.2057   15.4633   -4.0385 H   0  0  0  0  0  0  0  0  0  0  0  0
    1.4684   14.7543   -4.3969 H   0  0  0  0  0  0  0  0  0  0  0  0
   -0.6350   13.6631   -2.5073 H   0  0  0  0  0  0  0  0  0  0  0  0
   -0.0155   12.9412   -4.0440 H   0  0  0  0  0  0  0  0  0  0  0  0
    3.4859   12.4823   -2.8067 H   0  0  0  0  0  0  0  0  0  0  0  0
    2.3649   11.7678   -4.0147 H   0  0  0  0  0  0  0  0  0  0  0  0
    2.6764   13.5368   -4.0147 H   0  0  0  0  0  0  0  0  0  0  0  0
  1  2  1  0
  2  3  1  0
  3  4  1  0
  4  5  1  0
  5  6  1  0
  6  7  1  0
  7  8  1  0
  7  9  1  0
  2 10  1  0
 10 11  1  0
 11 12  1  0
 12 13  1  0
 13 14  1  1
 13 15  1  0
 15 16  1  0
 16 17  1  0
 17 18  2  0
 18 19  1  0
 19 20  1  0
 20 21  1  0
 21 22  1  0
 22 23  1  0
 22 24  1  0
 24 25  1  0
 24 26  1  0
 19 27  1  0
 27 28  1  6
 27 29  1  0
 29 30  1  0
 30 31  1  0
 31 32  1  6
  7  5  1  0
 31 10  1  0
 31 13  1  0
 27 15  1  0
 24 18  1  0
  1 33  1  0
  1 34  1  0
  1 35  1  0
  2 36  1  6
  3 37  1  0
  3 38  1  0
  4 39  1  0
  4 40  1  0
  5 41  1  1
  8 42  1  0
  8 43  1  0
  8 44  1  0
  9 45  1  0
  9 46  1  0
  9 47  1  0
 10 48  1  1
 11 49  1  0
 11 50  1  0
 12 51  1  0
 12 52  1  0
 14 53  1  0
 14 54  1  0
 14 55  1  0
 15 56  1  6
 16 57  1  0
 16 58  1  0
 17 59  1  0
 19 60  1  1
 20 61  1  0
 20 62  1  0
 21 63  1  0
 21 64  1  0
 22 65  1  1
 23 66  1  0
 25 67  1  0
 25 68  1  0
 25 69  1  0
 26 70  1  0
 26 71  1  0
 26 72  1  0
 28 73  1  0
 28 74  1  0
 28 75  1  0
 29 76  1  0
 29 77  1  0
 30 78  1  0
 30 79  1  0
 32 80  1  0
 32 81  1  0
 32 82  1  0
M  END
>  <meeko>  (9) 
{"is_sidechain": [false], "intermolecular_energy": 2.731, "internal_energy": -0.839}

$$$$
EPH_relaxed_0001_pdb2pqr_Repair_11_r2_0001_out
     RDKit          3D

 82 86  0  0  0  0  0  0  0  0999 V2000
    2.9800   18.7020   -1.3270 C   0  0  0  0  0  0  0  0  0  0  0  0
    2.5100   17.6410   -2.3270 C   0  0  2  0  0  0  0  0  0  0  0  0
    1.0700   17.8980   -2.8110 C   0  0  0  0  0  0  0  0  0  0  0  0
    0.4570   19.1900   -2.2650 C   0  0  0  0  0  0  0  0  0  0  0  0
   -0.8410   18.9340   -1.5610 C   0  0  2  0  0  0  0  0  0  0  0  0
   -1.6220   20.1080   -1.3000 O   0  0  0  0  0  0  0  0  0  0  0  0
   -1.1320   19.4020   -0.1470 C   0  0  0  0  0  0  0  0  0  0  0  0
   -0.1180   20.1640    0.6470 C   0  0  0  0  0  0  0  0  0  0  0  0
   -2.2030   18.7040    0.6310 C   0  0  0  0  0  0  0  0  0  0  0  0
    2.6100   16.2550   -1.6990 C   0  0  1  0  0  0  0  0  0  0  0  0
    3.1950   16.2910   -0.2620 C   0  0  0  0  0  0  0  0  0  0  0  0
    2.4780   15.1750    0.5410 C   0  0  0  0  0  0  0  0  0  0  0  0
    1.7560   14.3260   -0.5320 C   0  0  1  0  0  0  0  0  0  0  0  0
    2.8580   13.3800   -1.1040 C   0  0  0  0  0  0  0  0  0  0  0  0
    0.5020   13.5260   -0.0500 C   0  0  2  0  0  0  0  0  0  0  0  0
    0.7810   12.4590    1.0220 C   0  0  0  0  0  0  0  0  0  0  0  0
    1.1000   11.0970    0.4990 C   0  0  0  0  0  0  0  0  0  0  0  0
    0.8840   10.6730   -0.7590 C   0  0  0  0  0  0  0  0  0  0  0  0
    0.1720   11.5680   -1.7820 C   0  0  1  0  0  0  0  0  0  0  0  0
   -0.9110   10.7430   -2.5270 C   0  0  0  0  0  0  0  0  0  0  0  0
   -0.3480    9.4730   -3.1560 C   0  0  0  0  0  0  0  0  0  0  0  0
    0.3000    8.5820   -2.0990 C   0  0  2  0  0  0  0  0  0  0  0  0
   -0.7180    8.0970   -1.2180 O   0  0  0  0  0  0  0  0  0  0  0  0
    1.4010    9.3080   -1.2770 C   0  0  0  0  0  0  0  0  0  0  0  0
    2.6370    9.5650   -2.1750 C   0  0  0  0  0  0  0  0  0  0  0  0
    1.8730    8.3440   -0.1560 C   0  0  0  0  0  0  0  0  0  0  0  0
   -0.3880   12.9470   -1.2240 C   0  0  1  0  0  0  0  0  0  0  0  0
   -1.8190   12.7430   -0.6400 C   0  0  0  0  0  0  0  0  0  0  0  0
   -0.5360   13.9620   -2.4190 C   0  0  0  0  0  0  0  0  0  0  0  0
    0.7020   14.8090   -2.7690 C   0  0  0  0  0  0  0  0  0  0  0  0
    1.2920   15.4620   -1.5150 C   0  0  2  0  0  0  0  0  0  0  0  0
    0.2140   16.4360   -0.9300 C   0  0  0  0  0  0  0  0  0  0  0  0
    2.8183   18.3370   -0.3020 H   0  0  0  0  0  0  0  0  0  0  0  0
    4.0508   18.9017   -1.4805 H   0  0  0  0  0  0  0  0  0  0  0  0
    2.4084   19.6292   -1.4805 H   0  0  0  0  0  0  0  0  0  0  0  0
    3.1686   17.6990   -3.2061 H   0  0  0  0  0  0  0  0  0  0  0  0
    1.0781   17.9550   -3.9095 H   0  0  0  0  0  0  0  0  0  0  0  0
    0.4530   17.0674   -2.4375 H   0  0  0  0  0  0  0  0  0  0  0  0
    1.1628   19.6475   -1.5560 H   0  0  0  0  0  0  0  0  0  0  0  0
    0.2598   19.8612   -3.1139 H   0  0  0  0  0  0  0  0  0  0  0  0
   -0.9391   17.9526   -2.0480 H   0  0  0  0  0  0  0  0  0  0  0  0
   -0.3095   20.0201    1.7206 H   0  0  0  0  0  0  0  0  0  0  0  0
    0.8900   19.7980    0.4020 H   0  0  0  0  0  0  0  0  0  0  0  0
   -0.1891   21.2340    0.4020 H   0  0  0  0  0  0  0  0  0  0  0  0
   -2.0137   18.8274    1.7075 H   0  0  0  0  0  0  0  0  0  0  0  0
   -3.1817   19.1382    0.3787 H   0  0  0  0  0  0  0  0  0  0  0  0
   -2.2009   17.6333    0.3787 H   0  0  0  0  0  0  0  0  0  0  0  0
    3.2468   15.7589   -2.4462 H   0  0  0  0  0  0  0  0  0  0  0  0
    4.2783   16.1018   -0.2892 H   0  0  0  0  0  0  0  0  0  0  0  0
    3.0385   17.2753    0.2036 H   0  0  0  0  0  0  0  0  0  0  0  0
    3.2072   14.5644    1.0936 H   0  0  0  0  0  0  0  0  0  0  0  0
    1.7822   15.5809    1.2901 H   0  0  0  0  0  0  0  0  0  0  0  0
    3.4052   12.9102   -0.2734 H   0  0  0  0  0  0  0  0  0  0  0  0
    2.3877   12.6001   -1.7208 H   0  0  0  0  0  0  0  0  0  0  0  0
    3.5577   13.9630   -1.7208 H   0  0  0  0  0  0  0  0  0  0  0  0
   -0.0950   14.3027    0.4503 H   0  0  0  0  0  0  0  0  0  0  0  0
    1.6347   12.7995    1.6263 H   0  0  0  0  0  0  0  0  0  0  0  0
   -0.1513   12.3537    1.5962 H   0  0  0  0  0  0  0  0  0  0  0  0
    1.5495   10.3801    1.2019 H   0  0  0  0  0  0  0  0  0  0  0  0
    0.9460   11.8946   -2.4921 H   0  0  0  0  0  0  0  0  0  0  0  0
   -1.6966   10.4630   -1.8097 H   0  0  0  0  0  0  0  0  0  0  0  0
   -1.3090   11.3698   -3.3386 H   0  0  0  0  0  0  0  0  0  0  0  0
   -1.1648    8.9193   -3.6421 H   0  0  0  0  0  0  0  0  0  0  0  0
    0.4171    9.7559   -3.8939 H   0  0  0  0  0  0  0  0  0  0  0  0
    0.7972    7.7538   -2.6252 H   0  0  0  0  0  0  0  0  0  0  0  0
   -1.2720    7.4760   -1.7210 H   0  0  0  0  0  0  0  0  0  0  0  0
    3.5181    9.7482   -1.5424 H   0  0  0  0  0  0  0  0  0  0  0  0
    2.8181    8.6853   -2.8101 H   0  0  0  0  0  0  0  0  0  0  0  0
    2.4524   10.4440   -2.8101 H   0  0  0  0  0  0  0  0  0  0  0  0
    1.6551    8.7890    0.8261 H   0  0  0  0  0  0  0  0  0  0  0  0
    1.3426    7.3849   -0.2498 H   0  0  0  0  0  0  0  0  0  0  0  0
    2.9559    8.1748   -0.2498 H   0  0  0  0  0  0  0  0  0  0  0  0
   -1.7710   12.7498    0.4589 H   0  0  0  0  0  0  0  0  0  0  0  0
   -2.4746   13.5568   -0.9834 H   0  0  0  0  0  0  0  0  0  0  0  0
   -2.2211   11.7785   -0.9834 H   0  0  0  0  0  0  0  0  0  0  0  0
   -0.8077   13.3840   -3.3146 H   0  0  0  0  0  0  0  0  0  0  0  0
   -1.2957   14.6859   -2.0890 H   0  0  0  0  0  0  0  0  0  0  0  0
    1.4627   14.1613   -3.2293 H   0  0  0  0  0  0  0  0  0  0  0  0
    0.3980   15.6024   -3.4676 H   0  0  0  0  0  0  0  0  0  0  0  0
    0.2491   16.4043    0.1690 H   0  0  0  0  0  0  0  0  0  0  0  0
    0.4200   17.4603   -1.2741 H   0  0  0  0  0  0  0  0  0  0  0  0
   -0.7842   16.1275   -1.2741 H   0  0  0  0  0  0  0  0  0  0  0  0
  1  2  1  0
  2  3  1  0
  3  4  1  0
  4  5  1  0
  5  6  1  0
  6  7  1  0
  7  8  1  0
  7  9  1  0
  2 10  1  0
 10 11  1  0
 11 12  1  0
 12 13  1  0
 13 14  1  6
 13 15  1  0
 15 16  1  0
 16 17  1  0
 17 18  2  0
 18 19  1  0
 19 20  1  0
 20 21  1  0
 21 22  1  0
 22 23  1  0
 22 24  1  0
 24 25  1  0
 24 26  1  0
 19 27  1  0
 27 28  1  1
 27 29  1  0
 29 30  1  0
 30 31  1  0
 31 32  1  1
  7  5  1  0
 31 10  1  0
 31 13  1  0
 27 15  1  0
 24 18  1  0
  1 33  1  0
  1 34  1  0
  1 35  1  0
  2 36  1  6
  3 37  1  0
  3 38  1  0
  4 39  1  0
  4 40  1  0
  5 41  1  1
  8 42  1  0
  8 43  1  0
  8 44  1  0
  9 45  1  0
  9 46  1  0
  9 47  1  0
 10 48  1  6
 11 49  1  0
 11 50  1  0
 12 51  1  0
 12 52  1  0
 14 53  1  0
 14 54  1  0
 14 55  1  0
 15 56  1  1
 16 57  1  0
 16 58  1  0
 17 59  1  0
 19 60  1  6
 20 61  1  0
 20 62  1  0
 21 63  1  0
 21 64  1  0
 22 65  1  6
 23 66  1  0
 25 67  1  0
 25 68  1  0
 25 69  1  0
 26 70  1  0
 26 71  1  0
 26 72  1  0
 28 73  1  0
 28 74  1  0
 28 75  1  0
 29 76  1  0
 29 77  1  0
 30 78  1  0
 30 79  1  0
 32 80  1  0
 32 81  1  0
 32 82  1  0
M  END
>  <meeko>  (10) 
{"is_sidechain": [false], "intermolecular_energy": 2.731, "internal_energy": -0.839}

$$$$
EPH_relaxed_0001_pdb2pqr_Repair_11_r2_0001_out
     RDKit          3D

 82 86  0  0  0  0  0  0  0  0999 V2000
   -1.3340   16.5080   -6.0110 C   0  0  0  0  0  0  0  0  0  0  0  0
   -0.0880   15.8520   -6.6130 C   0  0  2  0  0  0  0  0  0  0  0  0
   -0.2810   15.4950   -8.1000 C   0  0  0  0  0  0  0  0  0  0  0  0
    0.3580   16.5000   -9.0620 C   0  0  0  0  0  0  0  0  0  0  0  0
    1.7730   16.1290   -9.3920 C   0  0  2  0  0  0  0  0  0  0  0  0
    2.2780   16.7110  -10.6000 O   0  0  0  0  0  0  0  0  0  0  0  0
    2.1570   15.2790  -10.5890 C   0  0  0  0  0  0  0  0  0  0  0  0
    1.1250   14.7490  -11.5330 C   0  0  0  0  0  0  0  0  0  0  0  0
    3.4720   14.5640  -10.5650 C   0  0  0  0  0  0  0  0  0  0  0  0
    0.2750   14.6020   -5.8200 C   0  0  1  0  0  0  0  0  0  0  0  0
    1.2900   13.6960   -6.5670 C   0  0  0  0  0  0  0  0  0  0  0  0
    2.2050   13.0650   -5.4860 C   0  0  0  0  0  0  0  0  0  0  0  0
    1.4890   13.3590   -4.1470 C   0  0  1  0  0  0  0  0  0  0  0  0
    0.3850   12.2620   -4.0330 C   0  0  0  0  0  0  0  0  0  0  0  0
    2.3940   13.4020   -2.8740 C   0  0  2  0  0  0  0  0  0  0  0  0
    3.1060   12.0810   -2.5340 C   0  0  0  0  0  0  0  0  0  0  0  0
    2.3540   11.1660   -1.6250 C   0  0  0  0  0  0  0  0  0  0  0  0
    1.2890   11.5100   -0.8760 C   0  0  0  0  0  0  0  0  0  0  0  0
    0.7990   12.9630   -0.8240 C   0  0  1  0  0  0  0  0  0  0  0  0
    0.5370   13.3680    0.6500 C   0  0  0  0  0  0  0  0  0  0  0  0
   -0.4100   12.4060    1.3620 C   0  0  0  0  0  0  0  0  0  0  0  0
    0.1400   10.9820    1.3400 C   0  0  2  0  0  0  0  0  0  0  0  0
    1.3280   10.9340    2.1360 O   0  0  0  0  0  0  0  0  0  0  0  0
    0.4510   10.4690   -0.0940 C   0  0  0  0  0  0  0  0  0  0  0  0
   -0.8730   10.2340   -0.8620 C   0  0  0  0  0  0  0  0  0  0  0  0
    1.1310    9.0780    0.0340 C   0  0  0  0  0  0  0  0  0  0  0  0
    1.6920   14.0240   -1.5990 C   0  0  1  0  0  0  0  0  0  0  0  0
    2.8320   14.5400   -0.6700 C   0  0  0  0  0  0  0  0  0  0  0  0
    0.8080   15.2770   -1.9550 C   0  0  0  0  0  0  0  0  0  0  0  0
    0.0310   15.2240   -3.2850 C   0  0  0  0  0  0  0  0  0  0  0  0
    0.9460   14.8060   -4.4390 C   0  0  2  0  0  0  0  0  0  0  0  0
    2.0540   15.9030   -4.5920 C   0  0  0  0  0  0  0  0  0  0  0  0
   -1.2716   16.4751   -4.9133 H   0  0  0  0  0  0  0  0  0  0  0  0
   -1.3943   17.5548   -6.3437 H   0  0  0  0  0  0  0  0  0  0  0  0
   -2.2311   15.9653   -6.3437 H   0  0  0  0  0  0  0  0  0  0  0  0
    0.7326   16.5821   -6.5529 H   0  0  0  0  0  0  0  0  0  0  0  0
    0.1678   14.5072   -8.2811 H   0  0  0  0  0  0  0  0  0  0  0  0
   -1.3634   15.5063   -8.2955 H   0  0  0  0  0  0  0  0  0  0  0  0
   -0.2296   16.5269   -9.9915 H   0  0  0  0  0  0  0  0  0  0  0  0
    0.3669   17.4852   -8.5727 H   0  0  0  0  0  0  0  0  0  0  0  0
    2.0286   16.0583   -8.3245 H   0  0  0  0  0  0  0  0  0  0  0  0
    0.2897   14.3200  -10.9600 H   0  0  0  0  0  0  0  0  0  0  0  0
    0.7528   15.5675  -12.1666 H   0  0  0  0  0  0  0  0  0  0  0  0
    1.5734   13.9696  -12.1666 H   0  0  0  0  0  0  0  0  0  0  0  0
    3.7795   14.3968   -9.5222 H   0  0  0  0  0  0  0  0  0  0  0  0
    3.3724   13.5959  -11.0776 H   0  0  0  0  0  0  0  0  0  0  0  0
    4.2304   15.1740  -11.0776 H   0  0  0  0  0  0  0  0  0  0  0  0
   -0.7272   14.1675   -5.6902 H   0  0  0  0  0  0  0  0  0  0  0  0
    0.7586   12.9080   -7.1207 H   0  0  0  0  0  0  0  0  0  0  0  0
    1.8782   14.2764   -7.2931 H   0  0  0  0  0  0  0  0  0  0  0  0
    2.3020   11.9808   -5.6443 H   0  0  0  0  0  0  0  0  0  0  0  0
    3.2251   13.4758   -5.5120 H   0  0  0  0  0  0  0  0  0  0  0  0
    0.1793   12.0576   -2.9719 H   0  0  0  0  0  0  0  0  0  0  0  0
   -0.5343   12.6146   -4.5234 H   0  0  0  0  0  0  0  0  0  0  0  0
    0.7318   11.3404   -4.5234 H   0  0  0  0  0  0  0  0  0  0  0  0
    3.1882   14.1013   -3.1743 H   0  0  0  0  0  0  0  0  0  0  0  0
    3.2948   11.5447   -3.4756 H   0  0  0  0  0  0  0  0  0  0  0  0
    4.0228   12.3601   -1.9939 H   0  0  0  0  0  0  0  0  0  0  0  0
    2.6988   10.1234   -1.5618 H   0  0  0  0  0  0  0  0  0  0  0  0
   -0.1434   12.9868   -1.3909 H   0  0  0  0  0  0  0  0  0  0  0  0
    1.4964   13.3810    1.1879 H   0  0  0  0  0  0  0  0  0  0  0  0
    0.0625   14.3604    0.6442 H   0  0  0  0  0  0  0  0  0  0  0  0
   -0.5323   12.7285    2.4065 H   0  0  0  0  0  0  0  0  0  0  0  0
   -1.3783   12.4163    0.8402 H   0  0  0  0  0  0  0  0  0  0  0  0
   -0.6384   10.3209    1.7486 H   0  0  0  0  0  0  0  0  0  0  0  0
    1.3920   11.7760    2.6190 H   0  0  0  0  0  0  0  0  0  0  0  0
   -1.6929   10.0885   -0.1433 H   0  0  0  0  0  0  0  0  0  0  0  0
   -1.0902   11.1076   -1.4941 H   0  0  0  0  0  0  0  0  0  0  0  0
   -0.7763    9.3390   -1.4941 H   0  0  0  0  0  0  0  0  0  0  0  0
    1.2540    8.8265    1.0978 H   0  0  0  0  0  0  0  0  0  0  0  0
    0.5034    8.3169   -0.4526 H   0  0  0  0  0  0  0  0  0  0  0  0
    2.1171    9.1058   -0.4526 H   0  0  0  0  0  0  0  0  0  0  0  0
    2.5370   14.4065    0.3813 H   0  0  0  0  0  0  0  0  0  0  0  0
    3.7522   13.9706   -0.8678 H   0  0  0  0  0  0  0  0  0  0  0  0
    3.0114   15.6071   -0.8678 H   0  0  0  0  0  0  0  0  0  0  0  0
    0.0743   15.4073   -1.1459 H   0  0  0  0  0  0  0  0  0  0  0  0
    1.5196   16.1079   -2.0703 H   0  0  0  0  0  0  0  0  0  0  0  0
   -0.7886   14.4960   -3.1940 H   0  0  0  0  0  0  0  0  0  0  0  0
   -0.3664   16.2272   -3.4988 H   0  0  0  0  0  0  0  0  0  0  0  0
    2.3853   16.2310   -3.5957 H   0  0  0  0  0  0  0  0  0  0  0  0
    2.9092   15.4859   -5.1439 H   0  0  0  0  0  0  0  0  0  0  0  0
    1.6454   16.7624   -5.1439 H   0  0  0  0  0  0  0  0  0  0  0  0
  1  2  1  0
  2  3  1  0
  3  4  1  0
  4  5  1  0
  5  6  1  0
  6  7  1  0
  7  8  1  0
  7  9  1  0
  2 10  1  0
 10 11  1  0
 11 12  1  0
 12 13  1  0
 13 14  1  1
 13 15  1  0
 15 16  1  0
 16 17  1  0
 17 18  2  0
 18 19  1  0
 19 20  1  0
 20 21  1  0
 21 22  1  0
 22 23  1  0
 22 24  1  0
 24 25  1  0
 24 26  1  0
 19 27  1  0
 27 28  1  1
 27 29  1  0
 29 30  1  0
 30 31  1  0
 31 32  1  6
  7  5  1  0
 31 10  1  0
 31 13  1  0
 27 15  1  0
 24 18  1  0
  1 33  1  0
  1 34  1  0
  1 35  1  0
  2 36  1  6
  3 37  1  0
  3 38  1  0
  4 39  1  0
  4 40  1  0
  5 41  1  1
  8 42  1  0
  8 43  1  0
  8 44  1  0
  9 45  1  0
  9 46  1  0
  9 47  1  0
 10 48  1  1
 11 49  1  0
 11 50  1  0
 12 51  1  0
 12 52  1  0
 14 53  1  0
 14 54  1  0
 14 55  1  0
 15 56  1  6
 16 57  1  0
 16 58  1  0
 17 59  1  0
 19 60  1  6
 20 61  1  0
 20 62  1  0
 21 63  1  0
 21 64  1  0
 22 65  1  1
 23 66  1  0
 25 67  1  0
 25 68  1  0
 25 69  1  0
 26 70  1  0
 26 71  1  0
 26 72  1  0
 28 73  1  0
 28 74  1  0
 28 75  1  0
 29 76  1  0
 29 77  1  0
 30 78  1  0
 30 79  1  0
 32 80  1  0
 32 81  1  0
 32 82  1  0
M  END
>  <meeko>  (11) 
{"is_sidechain": [false], "intermolecular_energy": 2.731, "internal_energy": -0.839}

$$$$
EPH_relaxed_0001_pdb2pqr_Repair_11_r2_0001_out
     RDKit          3D

 82 86  0  0  0  0  0  0  0  0999 V2000
    3.8350   17.4240    0.0640 C   0  0  0  0  0  0  0  0  0  0  0  0
    2.8150   17.2870   -1.0700 C   0  0  2  0  0  0  0  0  0  0  0  0
    2.0130   18.5850   -1.2890 C   0  0  0  0  0  0  0  0  0  0  0  0
    1.4800   19.2050    0.0050 C   0  0  0  0  0  0  0  0  0  0  0  0
    0.2170   19.9790   -0.2300 C   0  0  2  0  0  0  0  0  0  0  0  0
   -0.5800   20.1940    0.9430 O   0  0  0  0  0  0  0  0  0  0  0  0
   -1.1700   19.3800   -0.0840 C   0  0  0  0  0  0  0  0  0  0  0  0
   -1.3650   17.9500    0.3100 C   0  0  0  0  0  0  0  0  0  0  0  0
   -2.3110   20.0390   -0.7940 C   0  0  0  0  0  0  0  0  0  0  0  0
    1.8650   16.1310   -0.7770 C   0  0  1  0  0  0  0  0  0  0  0  0
    0.4440   16.6110   -0.3800 C   0  0  0  0  0  0  0  0  0  0  0  0
   -0.5550   15.5750   -0.9560 C   0  0  0  0  0  0  0  0  0  0  0  0
    0.3250   14.3730   -1.3710 C   0  0  1  0  0  0  0  0  0  0  0  0
    0.5760   13.5840   -0.0480 C   0  0  0  0  0  0  0  0  0  0  0  0
   -0.2510   13.4500   -2.4930 C   0  0  2  0  0  0  0  0  0  0  0  0
   -1.5670   12.7340   -2.1390 C   0  0  0  0  0  0  0  0  0  0  0  0
   -1.4110   11.3920   -1.5040 C   0  0  0  0  0  0  0  0  0  0  0  0
   -0.2820   10.6610   -1.4870 C   0  0  0  0  0  0  0  0  0  0  0  0
    0.9720   11.1310   -2.2360 C   0  0  1  0  0  0  0  0  0  0  0  0
    1.5660    9.9480   -3.0450 C   0  0  0  0  0  0  0  0  0  0  0  0
    1.8300    8.7200   -2.1780 C   0  0  0  0  0  0  0  0  0  0  0  0
    0.5480    8.2490   -1.4960 C   0  0  2  0  0  0  0  0  0  0  0  0
   -0.3550    7.7650   -2.4950 O   0  0  0  0  0  0  0  0  0  0  0  0
   -0.1450    9.3590   -0.6590 C   0  0  0  0  0  0  0  0  0  0  0  0
    0.7040    9.6700    0.5990 C   0  0  0  0  0  0  0  0  0  0  0  0
   -1.4960    8.7950   -0.1420 C   0  0  0  0  0  0  0  0  0  0  0  0
    0.8040   12.4460   -3.1120 C   0  0  1  0  0  0  0  0  0  0  0  0
    0.2850   12.0750   -4.5350 C   0  0  0  0  0  0  0  0  0  0  0  0
    2.2160   13.1120   -3.3150 C   0  0  0  0  0  0  0  0  0  0  0  0
    2.6780   14.1060   -2.2320 C   0  0  0  0  0  0  0  0  0  0  0  0
    1.5830   15.1330   -1.9280 C   0  0  2  0  0  0  0  0  0  0  0  0
    1.3240   15.9580   -3.2350 C   0  0  0  0  0  0  0  0  0  0  0  0
    3.3181   17.3546    1.0325 H   0  0  0  0  0  0  0  0  0  0  0  0
    4.5794   16.6178   -0.0130 H   0  0  0  0  0  0  0  0  0  0  0  0
    4.3402   18.3981   -0.0130 H   0  0  0  0  0  0  0  0  0  0  0  0
    3.3738   17.0841   -1.9955 H   0  0  0  0  0  0  0  0  0  0  0  0
    2.6678   19.3188   -1.7816 H   0  0  0  0  0  0  0  0  0  0  0  0
    1.1391   18.3230   -1.9035 H   0  0  0  0  0  0  0  0  0  0  0  0
    1.2763   18.4013    0.7279 H   0  0  0  0  0  0  0  0  0  0  0  0
    2.2408   19.8992    0.3914 H   0  0  0  0  0  0  0  0  0  0  0  0
    0.6911   20.5540   -1.0391 H   0  0  0  0  0  0  0  0  0  0  0  0
   -1.3759   17.8702    1.4070 H   0  0  0  0  0  0  0  0  0  0  0  0
   -2.3212   17.5856   -0.0937 H   0  0  0  0  0  0  0  0  0  0  0  0
   -0.5413   17.3429   -0.0937 H   0  0  0  0  0  0  0  0  0  0  0  0
   -3.0165   20.4465   -0.0549 H   0  0  0  0  0  0  0  0  0  0  0  0
   -1.9283   20.8552   -1.4244 H   0  0  0  0  0  0  0  0  0  0  0  0
   -2.8267   19.2997   -1.4244 H   0  0  0  0  0  0  0  0  0  0  0  0
    2.4262   15.6305    0.0258 H   0  0  0  0  0  0  0  0  0  0  0  0
    0.3521   16.6576    0.7152 H   0  0  0  0  0  0  0  0  0  0  0  0
    0.2419   17.6171   -0.7760 H   0  0  0  0  0  0  0  0  0  0  0  0
   -1.2869   15.2748   -0.1917 H   0  0  0  0  0  0  0  0  0  0  0  0
   -1.1343   15.9786   -1.7995 H   0  0  0  0  0  0  0  0  0  0  0  0
    0.3685   14.2364    0.8130 H   0  0  0  0  0  0  0  0  0  0  0  0
   -0.0877   12.7075   -0.0123 H   0  0  0  0  0  0  0  0  0  0  0  0
    1.6241   13.2520   -0.0123 H   0  0  0  0  0  0  0  0  0  0  0  0
   -0.5068   14.1719   -3.2826 H   0  0  0  0  0  0  0  0  0  0  0  0
   -2.1271   13.3763   -1.4435 H   0  0  0  0  0  0  0  0  0  0  0  0
   -2.0860   12.5610   -3.0933 H   0  0  0  0  0  0  0  0  0  0  0  0
   -2.2947   10.9645   -1.0077 H   0  0  0  0  0  0  0  0  0  0  0  0
    1.6863   11.4501   -1.4628 H   0  0  0  0  0  0  0  0  0  0  0  0
    0.8567    9.6728   -3.8395 H   0  0  0  0  0  0  0  0  0  0  0  0
    2.5302   10.2777   -3.4593 H   0  0  0  0  0  0  0  0  0  0  0  0
    2.2200    7.9093   -2.8110 H   0  0  0  0  0  0  0  0  0  0  0  0
    2.5626    8.9882   -1.4025 H   0  0  0  0  0  0  0  0  0  0  0  0
    0.8244    7.4516   -0.7904 H   0  0  0  0  0  0  0  0  0  0  0  0
   -0.0330    6.8950   -2.7860 H   0  0  0  0  0  0  0  0  0  0  0  0
    0.1142    9.4539    1.5020 H   0  0  0  0  0  0  0  0  0  0  0  0
    1.6092    9.0451    0.5941 H   0  0  0  0  0  0  0  0  0  0  0  0
    0.9914   10.7318    0.5941 H   0  0  0  0  0  0  0  0  0  0  0  0
   -1.4964    8.7948    0.9580 H   0  0  0  0  0  0  0  0  0  0  0  0
   -2.3204    9.4241   -0.5089 H   0  0  0  0  0  0  0  0  0  0  0  0
   -1.6284    7.7665   -0.5089 H   0  0  0  0  0  0  0  0  0  0  0  0
   -0.6069   11.4374   -4.4453 H   0  0  0  0  0  0  0  0  0  0  0  0
    0.0256   12.9936   -5.0817 H   0  0  0  0  0  0  0  0  0  0  0  0
    1.0702   11.5323   -5.0817 H   0  0  0  0  0  0  0  0  0  0  0  0
    2.9609   12.3041   -3.3646 H   0  0  0  0  0  0  0  0  0  0  0  0
    2.1225   13.7102   -4.2334 H   0  0  0  0  0  0  0  0  0  0  0  0
    2.9165   13.5513   -1.3125 H   0  0  0  0  0  0  0  0  0  0  0  0
    3.5665   14.6392   -2.6011 H   0  0  0  0  0  0  0  0  0  0  0  0
    1.0043   16.9762   -2.9686 H   0  0  0  0  0  0  0  0  0  0  0  0
    2.2498   16.0074   -3.8269 H   0  0  0  0  0  0  0  0  0  0  0  0
    0.5360   15.4694   -3.8269 H   0  0  0  0  0  0  0  0  0  0  0  0
  1  2  1  0
  2  3  1  0
  3  4  1  0
  4  5  1  0
  5  6  1  0
  6  7  1  0
  7  8  1  0
  7  9  1  0
  2 10  1  0
 10 11  1  0
 11 12  1  0
 12 13  1  0
 13 14  1  1
 13 15  1  0
 15 16  1  0
 16 17  1  0
 17 18  2  0
 18 19  1  0
 19 20  1  0
 20 21  1  0
 21 22  1  0
 22 23  1  0
 22 24  1  0
 24 25  1  0
 24 26  1  0
 19 27  1  0
 27 28  1  6
 27 29  1  0
 29 30  1  0
 30 31  1  0
 31 32  1  6
  7  5  1  0
 31 10  1  0
 31 13  1  0
 27 15  1  0
 24 18  1  0
  1 33  1  0
  1 34  1  0
  1 35  1  0
  2 36  1  6
  3 37  1  0
  3 38  1  0
  4 39  1  0
  4 40  1  0
  5 41  1  6
  8 42  1  0
  8 43  1  0
  8 44  1  0
  9 45  1  0
  9 46  1  0
  9 47  1  0
 10 48  1  1
 11 49  1  0
 11 50  1  0
 12 51  1  0
 12 52  1  0
 14 53  1  0
 14 54  1  0
 14 55  1  0
 15 56  1  6
 16 57  1  0
 16 58  1  0
 17 59  1  0
 19 60  1  1
 20 61  1  0
 20 62  1  0
 21 63  1  0
 21 64  1  0
 22 65  1  1
 23 66  1  0
 25 67  1  0
 25 68  1  0
 25 69  1  0
 26 70  1  0
 26 71  1  0
 26 72  1  0
 28 73  1  0
 28 74  1  0
 28 75  1  0
 29 76  1  0
 29 77  1  0
 30 78  1  0
 30 79  1  0
 32 80  1  0
 32 81  1  0
 32 82  1  0
M  END
>  <meeko>  (12) 
{"is_sidechain": [false], "intermolecular_energy": 2.731, "internal_energy": -0.839}

$$$$
EPH_relaxed_0001_pdb2pqr_Repair_11_r2_0001_out
     RDKit          3D

 82 86  0  0  0  0  0  0  0  0999 V2000
   -4.0730    7.3540   -3.7260 C   0  0  0  0  0  0  0  0  0  0  0  0
   -3.6520    7.2550   -2.2570 C   0  0  2  0  0  0  0  0  0  0  0  0
   -4.7950    6.7390   -1.3590 C   0  0  0  0  0  0  0  0  0  0  0  0
   -6.1270    6.5710   -2.0940 C   0  0  0  0  0  0  0  0  0  0  0  0
   -7.2700    6.4060   -1.1380 C   0  0  2  0  0  0  0  0  0  0  0  0
   -8.3550    5.6100   -1.6340 O   0  0  0  0  0  0  0  0  0  0  0  0
   -8.6500    6.9920   -1.3740 C   0  0  0  0  0  0  0  0  0  0  0  0
   -8.9590    7.7900   -2.6020 C   0  0  0  0  0  0  0  0  0  0  0  0
   -9.5480    7.2050   -0.1960 C   0  0  0  0  0  0  0  0  0  0  0  0
   -3.1730    8.6140   -1.7610 C   0  0  1  0  0  0  0  0  0  0  0  0
   -3.8710    9.0500   -0.4450 C   0  0  0  0  0  0  0  0  0  0  0  0
   -2.8190    9.8320    0.3820 C   0  0  0  0  0  0  0  0  0  0  0  0
   -1.6670   10.1070   -0.6130 C   0  0  1  0  0  0  0  0  0  0  0  0
   -2.1330   11.3510   -1.4320 C   0  0  0  0  0  0  0  0  0  0  0  0
   -0.2510   10.3250    0.0130 C   0  0  2  0  0  0  0  0  0  0  0  0
   -0.1280   11.5470    0.9400 C   0  0  0  0  0  0  0  0  0  0  0  0
    0.2810   12.8170    0.2700 C   0  0  0  0  0  0  0  0  0  0  0  0
    0.8130   12.9160   -0.9620 C   0  0  0  0  0  0  0  0  0  0  0  0
    1.1450   11.6600   -1.7790 C   0  0  1  0  0  0  0  0  0  0  0  0
    2.5640   11.8000   -2.3900 C   0  0  0  0  0  0  0  0  0  0  0  0
    2.7290   13.0830   -3.1990 C   0  0  0  0  0  0  0  0  0  0  0  0
    2.4480   14.3110   -2.3370 C   0  0  2  0  0  0  0  0  0  0  0  0
    3.4640   14.4140   -1.3350 O   0  0  0  0  0  0  0  0  0  0  0  0
    1.0490   14.2770   -1.6610 C   0  0  0  0  0  0  0  0  0  0  0  0
   -0.0520   14.4700   -2.7330 C   0  0  0  0  0  0  0  0  0  0  0  0
    0.9480   15.5010   -0.7110 C   0  0  0  0  0  0  0  0  0  0  0  0
    0.9350   10.2720   -1.0340 C   0  0  1  0  0  0  0  0  0  0  0  0
    2.2200    9.8990   -0.2320 C   0  0  0  0  0  0  0  0  0  0  0  0
    0.7360    9.1370   -2.1070 C   0  0  0  0  0  0  0  0  0  0  0  0
   -0.7030    8.8900   -2.5970 C   0  0  0  0  0  0  0  0  0  0  0  0
   -1.6690    8.7560   -1.4160 C   0  0  2  0  0  0  0  0  0  0  0  0
   -1.2390    7.4990   -0.5860 C   0  0  0  0  0  0  0  0  0  0  0  0
   -5.1423    7.6054   -3.7848 H   0  0  0  0  0  0  0  0  0  0  0  0
   -3.4840    8.1381   -4.2242 H   0  0  0  0  0  0  0  0  0  0  0  0
   -3.8952    6.3895   -4.2242 H   0  0  0  0  0  0  0  0  0  0  0  0
   -2.8301    6.5265   -2.1965 H   0  0  0  0  0  0  0  0  0  0  0  0
   -4.4997    5.7624   -0.9478 H   0  0  0  0  0  0  0  0  0  0  0  0
   -4.9536    7.4940   -0.5749 H   0  0  0  0  0  0  0  0  0  0  0  0
   -6.3067    7.4614   -2.7145 H   0  0  0  0  0  0  0  0  0  0  0  0
   -6.0648    5.6647   -2.7143 H   0  0  0  0  0  0  0  0  0  0  0  0
   -6.5870    6.4505   -0.2769 H   0  0  0  0  0  0  0  0  0  0  0  0
   -9.3419    8.7790   -2.3099 H   0  0  0  0  0  0  0  0  0  0  0  0
   -8.0435    7.9131   -3.1993 H   0  0  0  0  0  0  0  0  0  0  0  0
   -9.7186    7.2644   -3.1993 H   0  0  0  0  0  0  0  0  0  0  0  0
   -8.9737    7.0688    0.7322 H   0  0  0  0  0  0  0  0  0  0  0  0
   -9.9579    8.2253   -0.2272 H   0  0  0  0  0  0  0  0  0  0  0  0
  -10.3725    6.4775   -0.2272 H   0  0  0  0  0  0  0  0  0  0  0  0
   -3.4170    9.2273   -2.6410 H   0  0  0  0  0  0  0  0  0  0  0  0
   -4.7327    9.6959   -0.6694 H   0  0  0  0  0  0  0  0  0  0  0  0
   -4.2424    8.1776    0.1126 H   0  0  0  0  0  0  0  0  0  0  0  0
   -3.2425   10.7757    0.7563 H   0  0  0  0  0  0  0  0  0  0  0  0
   -2.4819    9.2708    1.2660 H   0  0  0  0  0  0  0  0  0  0  0  0
   -2.4334   12.1530   -0.7416 H   0  0  0  0  0  0  0  0  0  0  0  0
   -1.3060   11.7035   -2.0658 H   0  0  0  0  0  0  0  0  0  0  0  0
   -2.9881   11.0734   -2.0658 H   0  0  0  0  0  0  0  0  0  0  0  0
   -0.1426    9.4449    0.6638 H   0  0  0  0  0  0  0  0  0  0  0  0
   -1.1061   11.7130    1.4151 H   0  0  0  0  0  0  0  0  0  0  0  0
    0.6737   11.3078    1.6542 H   0  0  0  0  0  0  0  0  0  0  0  0
    0.1350   13.7516    0.8315 H   0  0  0  0  0  0  0  0  0  0  0  0
    0.3955   11.6133   -2.5828 H   0  0  0  0  0  0  0  0  0  0  0  0
    3.3010   11.8009   -1.5734 H   0  0  0  0  0  0  0  0  0  0  0  0
    2.7181   10.9522   -3.0737 H   0  0  0  0  0  0  0  0  0  0  0  0
    3.7595   13.1385   -3.5798 H   0  0  0  0  0  0  0  0  0  0  0  0
    2.0114   13.0673   -4.0326 H   0  0  0  0  0  0  0  0  0  0  0  0
    2.4549   15.1883   -3.0006 H   0  0  0  0  0  0  0  0  0  0  0  0
    3.0240   14.4150   -0.4680 H   0  0  0  0  0  0  0  0  0  0  0  0
   -1.0197   14.6396   -2.2383 H   0  0  0  0  0  0  0  0  0  0  0  0
    0.1959   15.3384   -3.3610 H   0  0  0  0  0  0  0  0  0  0  0  0
   -0.1142   13.5691   -3.3610 H   0  0  0  0  0  0  0  0  0  0  0  0
    0.9763   15.1577    0.3337 H   0  0  0  0  0  0  0  0  0  0  0  0
    1.7932   16.1801   -0.8968 H   0  0  0  0  0  0  0  0  0  0  0  0
    0.0030   16.0324   -0.8968 H   0  0  0  0  0  0  0  0  0  0  0  0
    2.0100    9.9600    0.8460 H   0  0  0  0  0  0  0  0  0  0  0  0
    2.5277    8.8745   -0.4883 H   0  0  0  0  0  0  0  0  0  0  0  0
    3.0284   10.5996   -0.4883 H   0  0  0  0  0  0  0  0  0  0  0  0
    1.3463    9.3976   -2.9843 H   0  0  0  0  0  0  0  0  0  0  0  0
    1.0315    8.2065   -1.6002 H   0  0  0  0  0  0  0  0  0  0  0  0
   -1.0189    9.7352   -3.2262 H   0  0  0  0  0  0  0  0  0  0  0  0
   -0.7213    7.9531   -3.1731 H   0  0  0  0  0  0  0  0  0  0  0  0
   -1.3162    7.7247    0.4878 H   0  0  0  0  0  0  0  0  0  0  0  0
   -1.8992    6.6541   -0.8315 H   0  0  0  0  0  0  0  0  0  0  0  0
   -0.1996    7.2355   -0.8315 H   0  0  0  0  0  0  0  0  0  0  0  0
  1  2  1  0
  2  3  1  0
  3  4  1  0
  4  5  1  0
  5  6  1  0
  6  7  1  0
  7  8  1  0
  7  9  1  0
  2 10  1  0
 10 11  1  0
 11 12  1  0
 12 13  1  0
 13 14  1  6
 13 15  1  0
 15 16  1  0
 16 17  1  0
 17 18  2  0
 18 19  1  0
 19 20  1  0
 20 21  1  0
 21 22  1  0
 22 23  1  0
 22 24  1  0
 24 25  1  0
 24 26  1  0
 19 27  1  0
 27 28  1  1
 27 29  1  0
 29 30  1  0
 30 31  1  0
 31 32  1  1
  7  5  1  0
 31 10  1  0
 31 13  1  0
 27 15  1  0
 24 18  1  0
  1 33  1  0
  1 34  1  0
  1 35  1  0
  2 36  1  6
  3 37  1  0
  3 38  1  0
  4 39  1  0
  4 40  1  0
  5 41  1  1
  8 42  1  0
  8 43  1  0
  8 44  1  0
  9 45  1  0
  9 46  1  0
  9 47  1  0
 10 48  1  6
 11 49  1  0
 11 50  1  0
 12 51  1  0
 12 52  1  0
 14 53  1  0
 14 54  1  0
 14 55  1  0
 15 56  1  1
 16 57  1  0
 16 58  1  0
 17 59  1  0
 19 60  1  6
 20 61  1  0
 20 62  1  0
 21 63  1  0
 21 64  1  0
 22 65  1  6
 23 66  1  0
 25 67  1  0
 25 68  1  0
 25 69  1  0
 26 70  1  0
 26 71  1  0
 26 72  1  0
 28 73  1  0
 28 74  1  0
 28 75  1  0
 29 76  1  0
 29 77  1  0
 30 78  1  0
 30 79  1  0
 32 80  1  0
 32 81  1  0
 32 82  1  0
M  END
>  <meeko>  (13) 
{"is_sidechain": [false], "intermolecular_energy": 2.731, "internal_energy": -0.839}

$$$$
EPH_relaxed_0001_pdb2pqr_Repair_11_r2_0001_out
     RDKit          3D

 82 86  0  0  0  0  0  0  0  0999 V2000
   -0.1480    9.3190   -4.2070 C   0  0  0  0  0  0  0  0  0  0  0  0
    0.0660    9.5360   -2.7060 C   0  0  2  0  0  0  0  0  0  0  0  0
   -0.6970    8.5010   -1.8560 C   0  0  0  0  0  0  0  0  0  0  0  0
   -2.2170    8.5610   -2.0300 C   0  0  0  0  0  0  0  0  0  0  0  0
   -2.7570    7.2980   -2.6290 C   0  0  2  0  0  0  0  0  0  0  0  0
   -3.8080    7.4900   -3.5860 O   0  0  0  0  0  0  0  0  0  0  0  0
   -4.1660    6.7910   -2.3830 C   0  0  0  0  0  0  0  0  0  0  0  0
   -5.1220    7.5380   -1.5070 C   0  0  0  0  0  0  0  0  0  0  0  0
   -4.4500    5.3370   -2.5930 C   0  0  0  0  0  0  0  0  0  0  0  0
   -0.3630   10.9460   -2.3190 C   0  0  1  0  0  0  0  0  0  0  0  0
   -1.5710   10.9570   -1.3440 C   0  0  0  0  0  0  0  0  0  0  0  0
   -1.3630   12.1600   -0.3880 C   0  0  0  0  0  0  0  0  0  0  0  0
   -0.2340   12.9890   -1.0440 C   0  0  1  0  0  0  0  0  0  0  0  0
   -0.9450   13.8300   -2.1500 C   0  0  0  0  0  0  0  0  0  0  0  0
    0.6070   13.8920   -0.0830 C   0  0  2  0  0  0  0  0  0  0  0  0
   -0.1860   15.0000    0.6320 C   0  0  0  0  0  0  0  0  0  0  0  0
   -0.2480   16.3060   -0.0880 C   0  0  0  0  0  0  0  0  0  0  0  0
    0.5410   16.6710   -1.1160 C   0  0  0  0  0  0  0  0  0  0  0  0
    1.6830   15.7640   -1.5920 C   0  0  1  0  0  0  0  0  0  0  0  0
    2.9690   16.6100   -1.7870 C   0  0  0  0  0  0  0  0  0  0  0  0
    2.7490   17.8050   -2.7090 C   0  0  0  0  0  0  0  0  0  0  0  0
    1.6460   18.7130   -2.1720 C   0  0  2  0  0  0  0  0  0  0  0  0
    2.0940   19.3110   -0.9520 O   0  0  0  0  0  0  0  0  0  0  0  0
    0.3040   17.9680   -1.9270 C   0  0  0  0  0  0  0  0  0  0  0  0
   -0.3330   17.5830   -3.2850 C   0  0  0  0  0  0  0  0  0  0  0  0
   -0.6790   18.9640   -1.2540 C   0  0  0  0  0  0  0  0  0  0  0  0
    1.9380   14.4570   -0.7250 C   0  0  1  0  0  0  0  0  0  0  0  0
    2.9000   14.7830    0.4580 C   0  0  0  0  0  0  0  0  0  0  0  0
    2.6750   13.3860   -1.6140 C   0  0  0  0  0  0  0  0  0  0  0  0
    1.7850   12.4450   -2.4480 C   0  0  0  0  0  0  0  0  0  0  0  0
    0.6780   11.8300   -1.5870 C   0  0  2  0  0  0  0  0  0  0  0  0
    1.3630   10.9600   -0.4780 C   0  0  0  0  0  0  0  0  0  0  0  0
   -0.9129    8.5434   -4.3600 H   0  0  0  0  0  0  0  0  0  0  0  0
   -0.4819   10.2595   -4.6695 H   0  0  0  0  0  0  0  0  0  0  0  0
    0.7971    8.9982   -4.6695 H   0  0  0  0  0  0  0  0  0  0  0  0
    1.1388    9.4047   -2.5016 H   0  0  0  0  0  0  0  0  0  0  0  0
   -0.3542    7.4959   -2.1427 H   0  0  0  0  0  0  0  0  0  0  0  0
   -0.4851    8.7323   -0.8017 H   0  0  0  0  0  0  0  0  0  0  0  0
   -2.6826    8.7160   -1.0455 H   0  0  0  0  0  0  0  0  0  0  0  0
   -2.4513    9.3914   -2.7123 H   0  0  0  0  0  0  0  0  0  0  0  0
   -1.7734    6.8121   -2.5493 H   0  0  0  0  0  0  0  0  0  0  0  0
   -4.8779    7.3472   -0.4515 H   0  0  0  0  0  0  0  0  0  0  0  0
   -5.0424    8.6157   -1.7128 H   0  0  0  0  0  0  0  0  0  0  0  0
   -6.1484    7.2002   -1.7128 H   0  0  0  0  0  0  0  0  0  0  0  0
   -4.5475    4.8378   -1.6176 H   0  0  0  0  0  0  0  0  0  0  0  0
   -5.3871    5.2243   -3.1579 H   0  0  0  0  0  0  0  0  0  0  0  0
   -3.6242    4.8799   -3.1579 H   0  0  0  0  0  0  0  0  0  0  0  0
   -0.5699   11.3565   -3.3183 H   0  0  0  0  0  0  0  0  0  0  0  0
   -2.5096   11.0768   -1.9050 H   0  0  0  0  0  0  0  0  0  0  0  0
   -1.6345   10.0129   -0.7830 H   0  0  0  0  0  0  0  0  0  0  0  0
   -2.2845   12.7551   -0.3065 H   0  0  0  0  0  0  0  0  0  0  0  0
   -1.1073   11.8418    0.6334 H   0  0  0  0  0  0  0  0  0  0  0  0
   -1.5865   14.5888   -1.6781 H   0  0  0  0  0  0  0  0  0  0  0  0
   -0.1889   14.3268   -2.7757 H   0  0  0  0  0  0  0  0  0  0  0  0
   -1.5607   13.1671   -2.7757 H   0  0  0  0  0  0  0  0  0  0  0  0
    0.9069   13.1841    0.7038 H   0  0  0  0  0  0  0  0  0  0  0  0
   -1.2161   14.6419    0.7757 H   0  0  0  0  0  0  0  0  0  0  0  0
    0.3476   15.1968    1.5736 H   0  0  0  0  0  0  0  0  0  0  0  0
   -1.0023   17.0318    0.2500 H   0  0  0  0  0  0  0  0  0  0  0  0
    1.3592   15.3488   -2.5578 H   0  0  0  0  0  0  0  0  0  0  0  0
    3.3008   16.9786   -0.8051 H   0  0  0  0  0  0  0  0  0  0  0  0
    3.7265   15.9632   -2.2538 H   0  0  0  0  0  0  0  0  0  0  0  0
    3.6841   18.3796   -2.7828 H   0  0  0  0  0  0  0  0  0  0  0  0
    2.4465   17.4333   -3.6991 H   0  0  0  0  0  0  0  0  0  0  0  0
    1.4454   19.4764   -2.9381 H   0  0  0  0  0  0  0  0  0  0  0  0
    2.1850   18.6010   -0.2930 H   0  0  0  0  0  0  0  0  0  0  0  0
   -1.2622   17.0214   -3.1081 H   0  0  0  0  0  0  0  0  0  0  0  0
   -0.5592   18.4957   -3.8558 H   0  0  0  0  0  0  0  0  0  0  0  0
    0.3699   16.9584   -3.8558 H   0  0  0  0  0  0  0  0  0  0  0  0
   -0.5954   18.8793   -0.1605 H   0  0  0  0  0  0  0  0  0  0  0  0
   -0.4297   19.9900   -1.5624 H   0  0  0  0  0  0  0  0  0  0  0  0
   -1.7082   18.7282   -1.5624 H   0  0  0  0  0  0  0  0  0  0  0  0
    2.3810   14.6071    1.4118 H   0  0  0  0  0  0  0  0  0  0  0  0
    3.7871   14.1353    0.3984 H   0  0  0  0  0  0  0  0  0  0  0  0
    3.2106   15.8366    0.3984 H   0  0  0  0  0  0  0  0  0  0  0  0
    3.3320   13.9271   -2.3108 H   0  0  0  0  0  0  0  0  0  0  0  0
    3.1983   12.7312   -0.9016 H   0  0  0  0  0  0  0  0  0  0  0  0
    1.3268   13.0168   -3.2684 H   0  0  0  0  0  0  0  0  0  0  0  0
    2.4108   11.6329   -2.8466 H   0  0  0  0  0  0  0  0  0  0  0  0
    1.0693   11.3331    0.5142 H   0  0  0  0  0  0  0  0  0  0  0  0
    1.0446    9.9125   -0.5849 H   0  0  0  0  0  0  0  0  0  0  0  0
    2.4559   11.0237   -0.5849 H   0  0  0  0  0  0  0  0  0  0  0  0
  1  2  1  0
  2  3  1  0
  3  4  1  0
  4  5  1  0
  5  6  1  0
  6  7  1  0
  7  8  1  0
  7  9  1  0
  2 10  1  0
 10 11  1  0
 11 12  1  0
 12 13  1  0
 13 14  1  6
 13 15  1  0
 15 16  1  0
 16 17  1  0
 17 18  2  0
 18 19  1  0
 19 20  1  0
 20 21  1  0
 21 22  1  0
 22 23  1  0
 22 24  1  0
 24 25  1  0
 24 26  1  0
 19 27  1  0
 27 28  1  1
 27 29  1  0
 29 30  1  0
 30 31  1  0
 31 32  1  1
  7  5  1  0
 31 10  1  0
 31 13  1  0
 27 15  1  0
 24 18  1  0
  1 33  1  0
  1 34  1  0
  1 35  1  0
  2 36  1  6
  3 37  1  0
  3 38  1  0
  4 39  1  0
  4 40  1  0
  5 41  1  6
  8 42  1  0
  8 43  1  0
  8 44  1  0
  9 45  1  0
  9 46  1  0
  9 47  1  0
 10 48  1  6
 11 49  1  0
 11 50  1  0
 12 51  1  0
 12 52  1  0
 14 53  1  0
 14 54  1  0
 14 55  1  0
 15 56  1  1
 16 57  1  0
 16 58  1  0
 17 59  1  0
 19 60  1  6
 20 61  1  0
 20 62  1  0
 21 63  1  0
 21 64  1  0
 22 65  1  6
 23 66  1  0
 25 67  1  0
 25 68  1  0
 25 69  1  0
 26 70  1  0
 26 71  1  0
 26 72  1  0
 28 73  1  0
 28 74  1  0
 28 75  1  0
 29 76  1  0
 29 77  1  0
 30 78  1  0
 30 79  1  0
 32 80  1  0
 32 81  1  0
 32 82  1  0
M  END
>  <meeko>  (14) 
{"is_sidechain": [false], "intermolecular_energy": 2.731, "internal_energy": -0.839}

$$$$
EPH_relaxed_0001_pdb2pqr_Repair_11_r2_0001_out
     RDKit          3D

 82 86  0  0  0  0  0  0  0  0999 V2000
   -2.1300    7.8330   -2.3300 C   0  0  0  0  0  0  0  0  0  0  0  0
   -2.2330    8.4920   -0.9520 C   0  0  2  0  0  0  0  0  0  0  0  0
   -3.6740    8.4670   -0.4020 C   0  0  0  0  0  0  0  0  0  0  0  0
   -4.7360    8.1950   -1.4710 C   0  0  0  0  0  0  0  0  0  0  0  0
   -5.8140    7.2870   -0.9630 C   0  0  2  0  0  0  0  0  0  0  0  0
   -5.5620    5.8890   -1.1620 O   0  0  0  0  0  0  0  0  0  0  0  0
   -6.6880    6.4370   -1.8670 C   0  0  0  0  0  0  0  0  0  0  0  0
   -6.5220    6.4570   -3.3550 C   0  0  0  0  0  0  0  0  0  0  0  0
   -8.0110    5.9680   -1.3490 C   0  0  0  0  0  0  0  0  0  0  0  0
   -1.7280    9.9280   -1.0230 C   0  0  1  0  0  0  0  0  0  0  0  0
   -1.3450   10.4970    0.3690 C   0  0  0  0  0  0  0  0  0  0  0  0
   -0.1310   11.4360    0.1500 C   0  0  0  0  0  0  0  0  0  0  0  0
   -0.0650   11.6380   -1.3820 C   0  0  1  0  0  0  0  0  0  0  0  0
   -1.1310   12.7360   -1.6890 C   0  0  0  0  0  0  0  0  0  0  0  0
    1.3340   12.0110   -1.9710 C   0  0  2  0  0  0  0  0  0  0  0  0
    1.9130   13.3500   -1.4800 C   0  0  0  0  0  0  0  0  0  0  0  0
    1.5590   14.5400   -2.3080 C   0  0  0  0  0  0  0  0  0  0  0  0
    1.0490   14.5020   -3.5540 C   0  0  0  0  0  0  0  0  0  0  0  0
    0.8690   13.1690   -4.2910 C   0  0  1  0  0  0  0  0  0  0  0  0
    1.4100   13.3010   -5.7390 C   0  0  0  0  0  0  0  0  0  0  0  0
    0.7870   14.4730   -6.4920 C   0  0  0  0  0  0  0  0  0  0  0  0
    1.0370   15.7880   -5.7570 C   0  0  2  0  0  0  0  0  0  0  0  0
    2.4380   16.0750   -5.7910 O   0  0  0  0  0  0  0  0  0  0  0  0
    0.5420   15.7700   -4.2840 C   0  0  0  0  0  0  0  0  0  0  0  0
   -1.0070   15.7610   -4.2550 C   0  0  0  0  0  0  0  0  0  0  0  0
    0.9810   17.1020   -3.6170 C   0  0  0  0  0  0  0  0  0  0  0  0
    1.4310   11.8830   -3.5450 C   0  0  1  0  0  0  0  0  0  0  0  0
    2.9400   11.6870   -3.8840 C   0  0  0  0  0  0  0  0  0  0  0  0
    0.6850   10.6070   -4.0880 C   0  0  0  0  0  0  0  0  0  0  0  0
   -0.6320   10.2210   -3.3870 C   0  0  0  0  0  0  0  0  0  0  0  0
   -0.4550   10.1940   -1.8660 C   0  0  2  0  0  0  0  0  0  0  0  0
    0.5950    9.0820   -1.5260 C   0  0  0  0  0  0  0  0  0  0  0  0
   -1.9612    6.7529   -2.2082 H   0  0  0  0  0  0  0  0  0  0  0  0
   -3.0648    7.9976   -2.8860 H   0  0  0  0  0  0  0  0  0  0  0  0
   -1.2900    8.2750   -2.8860 H   0  0  0  0  0  0  0  0  0  0  0  0
   -1.6054    7.9110   -0.2603 H   0  0  0  0  0  0  0  0  0  0  0  0
   -3.7405    7.6785    0.3621 H   0  0  0  0  0  0  0  0  0  0  0  0
   -3.8791    9.4669    0.0079 H   0  0  0  0  0  0  0  0  0  0  0  0
   -5.1886    9.1504   -1.7750 H   0  0  0  0  0  0  0  0  0  0  0  0
   -4.2459    7.7019   -2.3235 H   0  0  0  0  0  0  0  0  0  0  0  0
   -6.0555    7.9891   -0.1514 H   0  0  0  0  0  0  0  0  0  0  0  0
   -5.4581    6.5852   -3.6036 H   0  0  0  0  0  0  0  0  0  0  0  0
   -6.8855    5.5086   -3.7773 H   0  0  0  0  0  0  0  0  0  0  0  0
   -7.1004    7.2920   -3.7773 H   0  0  0  0  0  0  0  0  0  0  0  0
   -7.9968    5.9730   -0.2491 H   0  0  0  0  0  0  0  0  0  0  0  0
   -8.8045    6.6396   -1.7085 H   0  0  0  0  0  0  0  0  0  0  0  0
   -8.2043    4.9466   -1.7085 H   0  0  0  0  0  0  0  0  0  0  0  0
   -2.5990   10.4056   -1.4955 H   0  0  0  0  0  0  0  0  0  0  0  0
   -2.1888   11.0614    0.7927 H   0  0  0  0  0  0  0  0  0  0  0  0
   -1.0967    9.6879    1.0716 H   0  0  0  0  0  0  0  0  0  0  0  0
   -0.2862   12.3971    0.6620 H   0  0  0  0  0  0  0  0  0  0  0  0
    0.8006   11.0147    0.5556 H   0  0  0  0  0  0  0  0  0  0  0  0
   -1.5235   13.1403   -0.7443 H   0  0  0  0  0  0  0  0  0  0  0  0
   -0.6660   13.5464   -2.2695 H   0  0  0  0  0  0  0  0  0  0  0  0
   -1.9548   12.2951   -2.2695 H   0  0  0  0  0  0  0  0  0  0  0  0
    1.9829   11.2305   -1.5470 H   0  0  0  0  0  0  0  0  0  0  0  0
    1.5448   13.5252   -0.4584 H   0  0  0  0  0  0  0  0  0  0  0  0
    3.0066   13.2499   -1.5434 H   0  0  0  0  0  0  0  0  0  0  0  0
    1.7289   15.5316   -1.8633 H   0  0  0  0  0  0  0  0  0  0  0  0
   -0.2140   12.9773   -4.3128 H   0  0  0  0  0  0  0  0  0  0  0  0
    2.4993   13.4483   -5.6964 H   0  0  0  0  0  0  0  0  0  0  0  0
    1.1469   12.3795   -6.2790 H   0  0  0  0  0  0  0  0  0  0  0  0
    1.2307   14.5321   -7.4968 H   0  0  0  0  0  0  0  0  0  0  0  0
   -0.2986   14.3095   -6.5602 H   0  0  0  0  0  0  0  0  0  0  0  0
    0.4589   16.5695   -6.2719 H   0  0  0  0  0  0  0  0  0  0  0  0
    2.5830   16.7520   -6.4730 H   0  0  0  0  0  0  0  0  0  0  0  0
   -1.3542   15.7590   -3.2112 H   0  0  0  0  0  0  0  0  0  0  0  0
   -1.3885   16.6569   -4.7666 H   0  0  0  0  0  0  0  0  0  0  0  0
   -1.3781   14.8607   -4.7666 H   0  0  0  0  0  0  0  0  0  0  0  0
    0.9452   16.9934   -2.5230 H   0  0  0  0  0  0  0  0  0  0  0  0
    2.0074   17.3469   -3.9278 H   0  0  0  0  0  0  0  0  0  0  0  0
    0.3014   17.9091   -3.9278 H   0  0  0  0  0  0  0  0  0  0  0  0
    3.5185   11.6119   -2.9515 H   0  0  0  0  0  0  0  0  0  0  0  0
    3.0674   10.7648   -4.4699 H   0  0  0  0  0  0  0  0  0  0  0  0
    3.2988   12.5461   -4.4699 H   0  0  0  0  0  0  0  0  0  0  0  0
    0.4580   10.7811   -5.1501 H   0  0  0  0  0  0  0  0  0  0  0  0
    1.3705    9.7688   -3.8944 H   0  0  0  0  0  0  0  0  0  0  0  0
   -1.4070   10.9573   -3.6462 H   0  0  0  0  0  0  0  0  0  0  0  0
   -0.9277    9.2165   -3.7239 H   0  0  0  0  0  0  0  0  0  0  0  0
    0.6862    8.9854   -0.4341 H   0  0  0  0  0  0  0  0  0  0  0  0
    0.2650    8.1233   -1.9526 H   0  0  0  0  0  0  0  0  0  0  0  0
    1.5710    9.3566   -1.9526 H   0  0  0  0  0  0  0  0  0  0  0  0
  1  2  1  0
  2  3  1  0
  3  4  1  0
  4  5  1  0
  5  6  1  0
  6  7  1  0
  7  8  1  0
  7  9  1  0
  2 10  1  0
 10 11  1  0
 11 12  1  0
 12 13  1  0
 13 14  1  6
 13 15  1  0
 15 16  1  0
 16 17  1  0
 17 18  2  0
 18 19  1  0
 19 20  1  0
 20 21  1  0
 21 22  1  0
 22 23  1  0
 22 24  1  0
 24 25  1  0
 24 26  1  0
 19 27  1  0
 27 28  1  1
 27 29  1  0
 29 30  1  0
 30 31  1  0
 31 32  1  6
  7  5  1  0
 31 10  1  0
 31 13  1  0
 27 15  1  0
 24 18  1  0
  1 33  1  0
  1 34  1  0
  1 35  1  0
  2 36  1  1
  3 37  1  0
  3 38  1  0
  4 39  1  0
  4 40  1  0
  5 41  1  1
  8 42  1  0
  8 43  1  0
  8 44  1  0
  9 45  1  0
  9 46  1  0
  9 47  1  0
 10 48  1  6
 11 49  1  0
 11 50  1  0
 12 51  1  0
 12 52  1  0
 14 53  1  0
 14 54  1  0
 14 55  1  0
 15 56  1  1
 16 57  1  0
 16 58  1  0
 17 59  1  0
 19 60  1  6
 20 61  1  0
 20 62  1  0
 21 63  1  0
 21 64  1  0
 22 65  1  6
 23 66  1  0
 25 67  1  0
 25 68  1  0
 25 69  1  0
 26 70  1  0
 26 71  1  0
 26 72  1  0
 28 73  1  0
 28 74  1  0
 28 75  1  0
 29 76  1  0
 29 77  1  0
 30 78  1  0
 30 79  1  0
 32 80  1  0
 32 81  1  0
 32 82  1  0
M  END
>  <meeko>  (15) 
{"is_sidechain": [false], "intermolecular_energy": 2.731, "internal_energy": -0.839}

$$$$
EPH_relaxed_0001_pdb2pqr_Repair_11_r2_0001_out
     RDKit          3D

 82 86  0  0  0  0  0  0  0  0999 V2000
   -1.7480   14.7960    0.3720 C   0  0  0  0  0  0  0  0  0  0  0  0
   -0.3970   15.5030    0.2380 C   0  0  2  0  0  0  0  0  0  0  0  0
   -0.4020   16.5590   -0.8850 C   0  0  0  0  0  0  0  0  0  0  0  0
   -0.0230   17.9640   -0.4110 C   0  0  0  0  0  0  0  0  0  0  0  0
    1.4200   18.0450   -0.0130 C   0  0  2  0  0  0  0  0  0  0  0  0
    2.0820   19.2550   -0.4040 O   0  0  0  0  0  0  0  0  0  0  0  0
    2.5640   18.0440   -1.0100 C   0  0  0  0  0  0  0  0  0  0  0  0
    2.3150   17.9600   -2.4830 C   0  0  0  0  0  0  0  0  0  0  0  0
    3.9240   17.6340   -0.5380 C   0  0  0  0  0  0  0  0  0  0  0  0
    0.7030   14.4780   -0.0150 C   0  0  1  0  0  0  0  0  0  0  0  0
    0.8460   13.4570    1.1450 C   0  0  0  0  0  0  0  0  0  0  0  0
    1.2330   12.1000    0.5010 C   0  0  0  0  0  0  0  0  0  0  0  0
    1.6220   12.4560   -0.9530 C   0  0  1  0  0  0  0  0  0  0  0  0
    3.0910   12.9730   -0.8600 C   0  0  0  0  0  0  0  0  0  0  0  0
    1.4800   11.3090   -2.0060 C   0  0  2  0  0  0  0  0  0  0  0  0
    2.3750   10.0820   -1.7600 C   0  0  0  0  0  0  0  0  0  0  0  0
    3.7180   10.1320   -2.4110 C   0  0  0  0  0  0  0  0  0  0  0  0
    4.0820   10.9810   -3.3890 C   0  0  0  0  0  0  0  0  0  0  0  0
    3.0670   11.9510   -4.0090 C   0  0  1  0  0  0  0  0  0  0  0  0
    3.1880   11.9100   -5.5550 C   0  0  0  0  0  0  0  0  0  0  0  0
    4.6120   12.1690   -6.0370 C   0  0  0  0  0  0  0  0  0  0  0  0
    5.5820   11.1500   -5.4460 C   0  0  2  0  0  0  0  0  0  0  0  0
    5.2770    9.8580   -5.9820 O   0  0  0  0  0  0  0  0  0  0  0  0
    5.5420   11.0940   -3.8930 C   0  0  0  0  0  0  0  0  0  0  0  0
    6.1580   12.3890   -3.3100 C   0  0  0  0  0  0  0  0  0  0  0  0
    6.4610    9.9300   -3.4330 C   0  0  0  0  0  0  0  0  0  0  0  0
    1.5660   11.7950   -3.5100 C   0  0  1  0  0  0  0  0  0  0  0  0
    0.8280   10.7220   -4.3680 C   0  0  0  0  0  0  0  0  0  0  0  0
    0.8030   13.1520   -3.7440 C   0  0  0  0  0  0  0  0  0  0  0  0
    0.8830   14.1980   -2.6160 C   0  0  0  0  0  0  0  0  0  0  0  0
    0.5540   13.5680   -1.2590 C   0  0  2  0  0  0  0  0  0  0  0  0
   -0.9270   13.0570   -1.3150 C   0  0  0  0  0  0  0  0  0  0  0  0
   -1.9912   14.6687    1.4372 H   0  0  0  0  0  0  0  0  0  0  0  0
   -2.5283   15.4014   -0.1125 H   0  0  0  0  0  0  0  0  0  0  0  0
   -1.6954   13.8098   -0.1125 H   0  0  0  0  0  0  0  0  0  0  0  0
   -0.2042   16.0297    1.1843 H   0  0  0  0  0  0  0  0  0  0  0  0
    0.3165   16.2476   -1.6575 H   0  0  0  0  0  0  0  0  0  0  0  0
   -1.4317   16.6160   -1.2676 H   0  0  0  0  0  0  0  0  0  0  0  0
   -0.2081   18.6776   -1.2274 H   0  0  0  0  0  0  0  0  0  0  0  0
   -0.6356   18.2052    0.4702 H   0  0  0  0  0  0  0  0  0  0  0  0
    1.2286   17.4481    0.8909 H   0  0  0  0  0  0  0  0  0  0  0  0
    1.2866   17.6131   -2.6618 H   0  0  0  0  0  0  0  0  0  0  0  0
    2.4506   18.9536   -2.9350 H   0  0  0  0  0  0  0  0  0  0  0  0
    3.0248   17.2516   -2.9350 H   0  0  0  0  0  0  0  0  0  0  0  0
    3.9440   17.6280    0.5618 H   0  0  0  0  0  0  0  0  0  0  0  0
    4.1545   16.6265   -0.9145 H   0  0  0  0  0  0  0  0  0  0  0  0
    4.6729   18.3463   -0.9145 H   0  0  0  0  0  0  0  0  0  0  0  0
    1.5600   15.1552   -0.1450 H   0  0  0  0  0  0  0  0  0  0  0  0
    1.6318   13.7833    1.8422 H   0  0  0  0  0  0  0  0  0  0  0  0
   -0.0916   13.3713    1.7138 H   0  0  0  0  0  0  0  0  0  0  0  0
    2.0839   11.6471    1.0310 H   0  0  0  0  0  0  0  0  0  0  0  0
    0.4136   11.3675    0.5465 H   0  0  0  0  0  0  0  0  0  0  0  0
    3.3779   13.0740    0.1971 H   0  0  0  0  0  0  0  0  0  0  0  0
    3.7636   12.2576   -1.3558 H   0  0  0  0  0  0  0  0  0  0  0  0
    3.1673   13.9520   -1.3558 H   0  0  0  0  0  0  0  0  0  0  0  0
    0.4487   10.9641   -1.8403 H   0  0  0  0  0  0  0  0  0  0  0  0
    2.5266    9.9838   -0.6749 H   0  0  0  0  0  0  0  0  0  0  0  0
    1.8499    9.2268   -2.2104 H   0  0  0  0  0  0  0  0  0  0  0  0
    4.4739    9.4135   -2.0611 H   0  0  0  0  0  0  0  0  0  0  0  0
    3.3381   12.9514   -3.6405 H   0  0  0  0  0  0  0  0  0  0  0  0
    2.8715   10.9172   -5.9073 H   0  0  0  0  0  0  0  0  0  0  0  0
    2.5476   12.7067   -5.9614 H   0  0  0  0  0  0  0  0  0  0  0  0
    4.6392   12.0974   -7.1343 H   0  0  0  0  0  0  0  0  0  0  0  0
    4.9161   13.1741   -5.7093 H   0  0  0  0  0  0  0  0  0  0  0  0
    6.5992   11.4649   -5.7221 H   0  0  0  0  0  0  0  0  0  0  0  0
    6.1040    9.3490   -6.0110 H   0  0  0  0  0  0  0  0  0  0  0  0
    6.1361   12.3430   -2.2112 H   0  0  0  0  0  0  0  0  0  0  0  0
    7.1989   12.4863   -3.6523 H   0  0  0  0  0  0  0  0  0  0  0  0
    5.5767   13.2579   -3.6523 H   0  0  0  0  0  0  0  0  0  0  0  0
    6.4876    9.8963   -2.3338 H   0  0  0  0  0  0  0  0  0  0  0  0
    6.0683    8.9780   -3.8196 H   0  0  0  0  0  0  0  0  0  0  0  0
    7.4781   10.0911   -3.8196 H   0  0  0  0  0  0  0  0  0  0  0  0
    0.3311    9.9996   -3.7037 H   0  0  0  0  0  0  0  0  0  0  0  0
    0.0761   11.2137   -5.0027 H   0  0  0  0  0  0  0  0  0  0  0  0
    1.5562   10.1958   -5.0027 H   0  0  0  0  0  0  0  0  0  0  0  0
    1.2146   13.6123   -4.6543 H   0  0  0  0  0  0  0  0  0  0  0  0
   -0.2603   12.8770   -3.8063 H   0  0  0  0  0  0  0  0  0  0  0  0
    1.9009   14.6137   -2.5823 H   0  0  0  0  0  0  0  0  0  0  0  0
    0.1494   14.9915   -2.8211 H   0  0  0  0  0  0  0  0  0  0  0  0
   -1.3084   12.9254   -0.2917 H   0  0  0  0  0  0  0  0  0  0  0  0
   -1.5488   13.7926   -1.8463 H   0  0  0  0  0  0  0  0  0  0  0  0
   -0.9629   12.0945   -1.8463 H   0  0  0  0  0  0  0  0  0  0  0  0
  1  2  1  0
  2  3  1  0
  3  4  1  0
  4  5  1  0
  5  6  1  0
  6  7  1  0
  7  8  1  0
  7  9  1  0
  2 10  1  0
 10 11  1  0
 11 12  1  0
 12 13  1  0
 13 14  1  1
 13 15  1  0
 15 16  1  0
 16 17  1  0
 17 18  2  0
 18 19  1  0
 19 20  1  0
 20 21  1  0
 21 22  1  0
 22 23  1  0
 22 24  1  0
 24 25  1  0
 24 26  1  0
 19 27  1  0
 27 28  1  6
 27 29  1  0
 29 30  1  0
 30 31  1  0
 31 32  1  6
  7  5  1  0
 31 10  1  0
 31 13  1  0
 27 15  1  0
 24 18  1  0
  1 33  1  0
  1 34  1  0
  1 35  1  0
  2 36  1  1
  3 37  1  0
  3 38  1  0
  4 39  1  0
  4 40  1  0
  5 41  1  1
  8 42  1  0
  8 43  1  0
  8 44  1  0
  9 45  1  0
  9 46  1  0
  9 47  1  0
 10 48  1  6
 11 49  1  0
 11 50  1  0
 12 51  1  0
 12 52  1  0
 14 53  1  0
 14 54  1  0
 14 55  1  0
 15 56  1  6
 16 57  1  0
 16 58  1  0
 17 59  1  0
 19 60  1  1
 20 61  1  0
 20 62  1  0
 21 63  1  0
 21 64  1  0
 22 65  1  1
 23 66  1  0
 25 67  1  0
 25 68  1  0
 25 69  1  0
 26 70  1  0
 26 71  1  0
 26 72  1  0
 28 73  1  0
 28 74  1  0
 28 75  1  0
 29 76  1  0
 29 77  1  0
 30 78  1  0
 30 79  1  0
 32 80  1  0
 32 81  1  0
 32 82  1  0
M  END
>  <meeko>  (16) 
{"is_sidechain": [false], "intermolecular_energy": 2.731, "internal_energy": -0.839}

$$$$
EPH_relaxed_0001_pdb2pqr_Repair_11_r2_0001_out
     RDKit          3D

 82 86  0  0  0  0  0  0  0  0999 V2000
    3.1070   14.8370   -7.5380 C   0  0  0  0  0  0  0  0  0  0  0  0
    1.5840   14.8880   -7.3880 C   0  0  2  0  0  0  0  0  0  0  0  0
    0.9760   16.1370   -8.0570 C   0  0  0  0  0  0  0  0  0  0  0  0
    1.9030   16.8020   -9.0770 C   0  0  0  0  0  0  0  0  0  0  0  0
    1.5630   16.3990  -10.4800 C   0  0  2  0  0  0  0  0  0  0  0  0
    0.9690   15.1000  -10.6030 O   0  0  0  0  0  0  0  0  0  0  0  0
    2.2560   15.2690  -11.2180 C   0  0  0  0  0  0  0  0  0  0  0  0
    3.3480   14.4720  -10.5760 C   0  0  0  0  0  0  0  0  0  0  0  0
    2.2150   15.2600  -12.7150 C   0  0  0  0  0  0  0  0  0  0  0  0
    1.2060   14.8510   -5.9120 C   0  0  1  0  0  0  0  0  0  0  0  0
   -0.0620   15.6890   -5.5990 C   0  0  0  0  0  0  0  0  0  0  0  0
   -0.8240   14.9450   -4.4720 C   0  0  0  0  0  0  0  0  0  0  0  0
    0.1840   13.8950   -3.9480 C   0  0  1  0  0  0  0  0  0  0  0  0
    1.1120   14.6830   -2.9710 C   0  0  0  0  0  0  0  0  0  0  0  0
   -0.4290   12.6290   -3.2660 C   0  0  2  0  0  0  0  0  0  0  0  0
   -1.2460   12.9050   -1.9920 C   0  0  0  0  0  0  0  0  0  0  0  0
   -0.4710   12.8710   -0.7160 C   0  0  0  0  0  0  0  0  0  0  0  0
    0.7620   12.3530   -0.5650 C   0  0  0  0  0  0  0  0  0  0  0  0
    1.4640   11.6360   -1.7260 C   0  0  1  0  0  0  0  0  0  0  0  0
    2.0750   10.3040   -1.2180 C   0  0  0  0  0  0  0  0  0  0  0  0
    2.9920   10.5020   -0.0150 C   0  0  0  0  0  0  0  0  0  0  0  0
    2.2430   11.1630    1.1390 C   0  0  2  0  0  0  0  0  0  0  0  0
    1.2470   10.2570    1.6220 O   0  0  0  0  0  0  0  0  0  0  0  0
    1.5760   12.5100    0.7430 C   0  0  0  0  0  0  0  0  0  0  0  0
    2.6680   13.5830    0.5100 C   0  0  0  0  0  0  0  0  0  0  0  0
    0.7370   13.0010    1.9540 C   0  0  0  0  0  0  0  0  0  0  0  0
    0.6010   11.4480   -3.0470 C   0  0  1  0  0  0  0  0  0  0  0  0
   -0.2390   10.1370   -2.9510 C   0  0  0  0  0  0  0  0  0  0  0  0
    1.5710   11.2650   -4.2730 C   0  0  0  0  0  0  0  0  0  0  0  0
    2.0470   12.5490   -4.9790 C   0  0  0  0  0  0  0  0  0  0  0  0
    0.8660   13.4690   -5.2990 C   0  0  2  0  0  0  0  0  0  0  0  0
   -0.0750   12.7110   -6.2970 C   0  0  0  0  0  0  0  0  0  0  0  0
    3.5732   14.8214   -6.5418 H   0  0  0  0  0  0  0  0  0  0  0  0
    3.3909   13.9288   -8.0900 H   0  0  0  0  0  0  0  0  0  0  0  0
    3.4510   15.7241   -8.0900 H   0  0  0  0  0  0  0  0  0  0  0  0
    1.1711   14.0061   -7.8997 H   0  0  0  0  0  0  0  0  0  0  0  0
    0.0503   15.8394   -8.5714 H   0  0  0  0  0  0  0  0  0  0  0  0
    0.7954   16.8728   -7.2595 H   0  0  0  0  0  0  0  0  0  0  0  0
    1.8075   17.8941   -8.9867 H   0  0  0  0  0  0  0  0  0  0  0  0
    2.9329   16.4778   -8.8670 H   0  0  0  0  0  0  0  0  0  0  0  0
    1.3593   17.4444  -10.7552 H   0  0  0  0  0  0  0  0  0  0  0  0
    3.2562   14.5390   -9.4819 H   0  0  0  0  0  0  0  0  0  0  0  0
    3.2657   13.4201  -10.8871 H   0  0  0  0  0  0  0  0  0  0  0  0
    4.3247   14.8711  -10.8871 H   0  0  0  0  0  0  0  0  0  0  0  0
    1.1924   15.0355  -13.0524 H   0  0  0  0  0  0  0  0  0  0  0  0
    2.5187   16.2462  -13.0961 H   0  0  0  0  0  0  0  0  0  0  0  0
    2.9038   14.4917  -13.0961 H   0  0  0  0  0  0  0  0  0  0  0  0
    2.1376   15.2380   -5.4735 H   0  0  0  0  0  0  0  0  0  0  0  0
    0.2236   16.6964   -5.2619 H   0  0  0  0  0  0  0  0  0  0  0  0
   -0.6918   15.8010   -6.4939 H   0  0  0  0  0  0  0  0  0  0  0  0
   -1.1104   15.6422   -3.6708 H   0  0  0  0  0  0  0  0  0  0  0  0
   -1.7566   14.4855   -4.8314 H   0  0  0  0  0  0  0  0  0  0  0  0
    0.8352   14.4480   -1.9327 H   0  0  0  0  0  0  0  0  0  0  0  0
    2.1587   14.3935   -3.1459 H   0  0  0  0  0  0  0  0  0  0  0  0
    0.9960   15.7628   -3.1459 H   0  0  0  0  0  0  0  0  0  0  0  0
   -1.1547   12.2848   -4.0175 H   0  0  0  0  0  0  0  0  0  0  0  0
   -1.6984   13.9031   -2.0882 H   0  0  0  0  0  0  0  0  0  0  0  0
   -1.9830   12.0914   -1.9216 H   0  0  0  0  0  0  0  0  0  0  0  0
   -0.9477   13.3056    0.1750 H   0  0  0  0  0  0  0  0  0  0  0  0
    2.2662   12.3103   -2.0603 H   0  0  0  0  0  0  0  0  0  0  0  0
    1.2565    9.6279   -0.9299 H   0  0  0  0  0  0  0  0  0  0  0  0
    2.6807    9.8821   -2.0336 H   0  0  0  0  0  0  0  0  0  0  0  0
    3.3696    9.5229    0.3148 H   0  0  0  0  0  0  0  0  0  0  0  0
    3.8254   11.1553   -0.3126 H   0  0  0  0  0  0  0  0  0  0  0  0
    2.9806   11.3953    1.9213 H   0  0  0  0  0  0  0  0  0  0  0  0
    0.3800   10.5950    1.3410 H   0  0  0  0  0  0  0  0  0  0  0  0
    3.0379   13.9464    1.4801 H   0  0  0  0  0  0  0  0  0  0  0  0
    3.5004   13.1417   -0.0578 H   0  0  0  0  0  0  0  0  0  0  0  0
    2.2414   14.4230   -0.0578 H   0  0  0  0  0  0  0  0  0  0  0  0
    1.2369   12.7084    2.8891 H   0  0  0  0  0  0  0  0  0  0  0  0
    0.6435   14.0963    1.9153 H   0  0  0  0  0  0  0  0  0  0  0  0
   -0.2637   12.5460    1.9153 H   0  0  0  0  0  0  0  0  0  0  0  0
   -0.4020    9.8826   -1.8933 H   0  0  0  0  0  0  0  0  0  0  0  0
   -1.2099   10.2865   -3.4460 H   0  0  0  0  0  0  0  0  0  0  0  0
    0.3026    9.3174   -3.4460 H   0  0  0  0  0  0  0  0  0  0  0  0
    2.4638   10.7317   -3.9144 H   0  0  0  0  0  0  0  0  0  0  0  0
    0.9825   10.7225   -5.0276 H   0  0  0  0  0  0  0  0  0  0  0  0
    2.7500   13.0815   -4.3216 H   0  0  0  0  0  0  0  0  0  0  0  0
    2.5386   12.2687   -5.9223 H   0  0  0  0  0  0  0  0  0  0  0  0
   -0.8095   12.1194   -5.7309 H   0  0  0  0  0  0  0  0  0  0  0  0
   -0.6014   13.4402   -6.9303 H   0  0  0  0  0  0  0  0  0  0  0  0
    0.5254   12.0414   -6.9303 H   0  0  0  0  0  0  0  0  0  0  0  0
  1  2  1  0
  2  3  1  0
  3  4  1  0
  4  5  1  0
  5  6  1  0
  6  7  1  0
  7  8  1  0
  7  9  1  0
  2 10  1  0
 10 11  1  0
 11 12  1  0
 12 13  1  0
 13 14  1  1
 13 15  1  0
 15 16  1  0
 16 17  1  0
 17 18  2  0
 18 19  1  0
 19 20  1  0
 20 21  1  0
 21 22  1  0
 22 23  1  0
 22 24  1  0
 24 25  1  0
 24 26  1  0
 19 27  1  0
 27 28  1  1
 27 29  1  0
 29 30  1  0
 30 31  1  0
 31 32  1  6
  7  5  1  0
 31 10  1  0
 31 13  1  0
 27 15  1  0
 24 18  1  0
  1 33  1  0
  1 34  1  0
  1 35  1  0
  2 36  1  6
  3 37  1  0
  3 38  1  0
  4 39  1  0
  4 40  1  0
  5 41  1  6
  8 42  1  0
  8 43  1  0
  8 44  1  0
  9 45  1  0
  9 46  1  0
  9 47  1  0
 10 48  1  1
 11 49  1  0
 11 50  1  0
 12 51  1  0
 12 52  1  0
 14 53  1  0
 14 54  1  0
 14 55  1  0
 15 56  1  6
 16 57  1  0
 16 58  1  0
 17 59  1  0
 19 60  1  6
 20 61  1  0
 20 62  1  0
 21 63  1  0
 21 64  1  0
 22 65  1  1
 23 66  1  0
 25 67  1  0
 25 68  1  0
 25 69  1  0
 26 70  1  0
 26 71  1  0
 26 72  1  0
 28 73  1  0
 28 74  1  0
 28 75  1  0
 29 76  1  0
 29 77  1  0
 30 78  1  0
 30 79  1  0
 32 80  1  0
 32 81  1  0
 32 82  1  0
M  END
>  <meeko>  (17) 
{"is_sidechain": [false], "intermolecular_energy": 2.731, "internal_energy": -0.839}

$$$$
EPH_relaxed_0001_pdb2pqr_Repair_11_r2_0001_out
     RDKit          3D

 82 86  0  0  0  0  0  0  0  0999 V2000
    0.3340    9.9570   -4.7200 C   0  0  0  0  0  0  0  0  0  0  0  0
    1.4130   10.6890   -3.9190 C   0  0  2  0  0  0  0  0  0  0  0  0
    1.8910    9.8690   -2.7040 C   0  0  0  0  0  0  0  0  0  0  0  0
    0.9050    8.7820   -2.2680 C   0  0  0  0  0  0  0  0  0  0  0  0
   -0.0480    9.2830   -1.2260 C   0  0  2  0  0  0  0  0  0  0  0  0
   -0.6030    8.2650   -0.3830 O   0  0  0  0  0  0  0  0  0  0  0  0
   -1.5320    8.9650   -1.2270 C   0  0  0  0  0  0  0  0  0  0  0  0
   -2.1460    8.1130   -2.2940 C   0  0  0  0  0  0  0  0  0  0  0  0
   -2.4590    9.8730   -0.4810 C   0  0  0  0  0  0  0  0  0  0  0  0
    0.8880   12.0450   -3.4580 C   0  0  1  0  0  0  0  0  0  0  0  0
   -0.6330   12.0240   -3.1540 C   0  0  0  0  0  0  0  0  0  0  0  0
   -0.8650   12.9900   -1.9640 C   0  0  0  0  0  0  0  0  0  0  0  0
    0.4600   13.7790   -1.8390 C   0  0  1  0  0  0  0  0  0  0  0  0
    0.3660   14.8950   -2.9260 C   0  0  0  0  0  0  0  0  0  0  0  0
    0.7800   14.3730   -0.4290 C   0  0  2  0  0  0  0  0  0  0  0  0
   -0.2270   15.4180    0.0830 C   0  0  0  0  0  0  0  0  0  0  0  0
    0.0860   16.8330   -0.2740 C   0  0  0  0  0  0  0  0  0  0  0  0
    1.2700   17.2820   -0.7280 C   0  0  0  0  0  0  0  0  0  0  0  0
    2.4810   16.3450   -0.8320 C   0  0  1  0  0  0  0  0  0  0  0  0
    3.7300   17.0440   -0.2340 C   0  0  0  0  0  0  0  0  0  0  0  0
    3.9930   18.4090   -0.8630 C   0  0  0  0  0  0  0  0  0  0  0  0
    2.7900   19.3310   -0.6890 C   0  0  2  0  0  0  0  0  0  0  0  0
    2.6340   19.6280    0.7020 O   0  0  0  0  0  0  0  0  0  0  0  0
    1.4700   18.7280   -1.2450 C   0  0  0  0  0  0  0  0  0  0  0  0
    1.5280   18.6880   -2.7920 C   0  0  0  0  0  0  0  0  0  0  0  0
    0.3110   19.6950   -0.8800 C   0  0  0  0  0  0  0  0  0  0  0  0
    2.2710   14.8770   -0.2610 C   0  0  1  0  0  0  0  0  0  0  0  0
    2.5800   14.8510    1.2670 C   0  0  0  0  0  0  0  0  0  0  0  0
    3.3100   13.9080   -0.9400 C   0  0  0  0  0  0  0  0  0  0  0  0
    2.8870   13.2590   -2.2720 C   0  0  0  0  0  0  0  0  0  0  0  0
    1.4910   12.6370   -2.1600 C   0  0  2  0  0  0  0  0  0  0  0  0
    1.5610   11.4960   -1.0890 C   0  0  0  0  0  0  0  0  0  0  0  0
   -0.3738    9.4768   -4.0283 H   0  0  0  0  0  0  0  0  0  0  0  0
   -0.2042   10.6772   -5.3538 H   0  0  0  0  0  0  0  0  0  0  0  0
    0.8043    9.1907   -5.3538 H   0  0  0  0  0  0  0  0  0  0  0  0
    2.2786   10.8310   -4.5827 H   0  0  0  0  0  0  0  0  0  0  0  0
    2.8456    9.3879   -2.9637 H   0  0  0  0  0  0  0  0  0  0  0  0
    1.9893   10.5700   -1.8620 H   0  0  0  0  0  0  0  0  0  0  0  0
    0.3310    8.4489   -3.1452 H   0  0  0  0  0  0  0  0  0  0  0  0
    1.4808    7.9510   -1.8345 H   0  0  0  0  0  0  0  0  0  0  0  0
    0.5033   10.2314   -1.1443 H   0  0  0  0  0  0  0  0  0  0  0  0
   -2.7285    7.3047   -1.8278 H   0  0  0  0  0  0  0  0  0  0  0  0
   -2.8090    8.7293   -2.9191 H   0  0  0  0  0  0  0  0  0  0  0  0
   -1.3517    7.6790   -2.9191 H   0  0  0  0  0  0  0  0  0  0  0  0
   -2.3168    9.7337    0.6008 H   0  0  0  0  0  0  0  0  0  0  0  0
   -2.2422   10.9179   -0.7478 H   0  0  0  0  0  0  0  0  0  0  0  0
   -3.4992    9.6347   -0.7478 H   0  0  0  0  0  0  0  0  0  0  0  0
    1.1798   12.6595   -4.3224 H   0  0  0  0  0  0  0  0  0  0  0  0
   -1.1997   12.3636   -4.0335 H   0  0  0  0  0  0  0  0  0  0  0  0
   -0.9726   11.0069   -2.9088 H   0  0  0  0  0  0  0  0  0  0  0  0
   -1.7038   13.6701   -2.1735 H   0  0  0  0  0  0  0  0  0  0  0  0
   -1.1222   12.4564   -1.0371 H   0  0  0  0  0  0  0  0  0  0  0  0
    0.2833   15.8769   -2.4372 H   0  0  0  0  0  0  0  0  0  0  0  0
    1.2692   14.8727   -3.5535 H   0  0  0  0  0  0  0  0  0  0  0  0
   -0.5207   14.7219   -3.5535 H   0  0  0  0  0  0  0  0  0  0  0  0
    0.6625   13.4981    0.2273 H   0  0  0  0  0  0  0  0  0  0  0  0
   -1.2142   15.1723   -0.3353 H   0  0  0  0  0  0  0  0  0  0  0  0
   -0.1885   15.3654    1.1811 H   0  0  0  0  0  0  0  0  0  0  0  0
   -0.7204   17.5718   -0.1558 H   0  0  0  0  0  0  0  0  0  0  0  0
    2.6344   16.1635   -1.9060 H   0  0  0  0  0  0  0  0  0  0  0  0
    3.5758   17.1775    0.8469 H   0  0  0  0  0  0  0  0  0  0  0  0
    4.6017   16.4064   -0.4425 H   0  0  0  0  0  0  0  0  0  0  0  0
    4.8692   18.8654   -0.3792 H   0  0  0  0  0  0  0  0  0  0  0  0
    4.1760   18.2702   -1.9388 H   0  0  0  0  0  0  0  0  0  0  0  0
    2.9875   20.2435   -1.2707 H   0  0  0  0  0  0  0  0  0  0  0  0
    2.9840   18.8730    1.2050 H   0  0  0  0  0  0  0  0  0  0  0  0
    2.3946   18.0903   -3.1111 H   0  0  0  0  0  0  0  0  0  0  0  0
    0.6054   18.2333   -3.1819 H   0  0  0  0  0  0  0  0  0  0  0  0
    1.6252   19.7120   -3.1819 H   0  0  0  0  0  0  0  0  0  0  0  0
    0.2245   19.7672    0.2142 H   0  0  0  0  0  0  0  0  0  0  0  0
    0.5191   20.6910   -1.2978 H   0  0  0  0  0  0  0  0  0  0  0  0
   -0.6316   19.3118   -1.2978 H   0  0  0  0  0  0  0  0  0  0  0  0
    1.6399   14.9301    1.8326 H   0  0  0  0  0  0  0  0  0  0  0  0
    3.0838   13.9073    1.5232 H   0  0  0  0  0  0  0  0  0  0  0  0
    3.2344   15.6973    1.5232 H   0  0  0  0  0  0  0  0  0  0  0  0
    4.2287   14.4833   -1.1271 H   0  0  0  0  0  0  0  0  0  0  0  0
    3.4258   13.0709   -0.2358 H   0  0  0  0  0  0  0  0  0  0  0  0
    2.8766   14.0272   -3.0593 H   0  0  0  0  0  0  0  0  0  0  0  0
    3.6063   12.4643   -2.5190 H   0  0  0  0  0  0  0  0  0  0  0  0
    1.5340   11.9367   -0.0815 H   0  0  0  0  0  0  0  0  0  0  0  0
    0.7026   10.8201   -1.2167 H   0  0  0  0  0  0  0  0  0  0  0  0
    2.4956   10.9301   -1.2167 H   0  0  0  0  0  0  0  0  0  0  0  0
  1  2  1  0
  2  3  1  0
  3  4  1  0
  4  5  1  0
  5  6  1  0
  6  7  1  0
  7  8  1  0
  7  9  1  0
  2 10  1  0
 10 11  1  0
 11 12  1  0
 12 13  1  0
 13 14  1  6
 13 15  1  0
 15 16  1  0
 16 17  1  0
 17 18  2  0
 18 19  1  0
 19 20  1  0
 20 21  1  0
 21 22  1  0
 22 23  1  0
 22 24  1  0
 24 25  1  0
 24 26  1  0
 19 27  1  0
 27 28  1  1
 27 29  1  0
 29 30  1  0
 30 31  1  0
 31 32  1  1
  7  5  1  0
 31 10  1  0
 31 13  1  0
 27 15  1  0
 24 18  1  0
  1 33  1  0
  1 34  1  0
  1 35  1  0
  2 36  1  6
  3 37  1  0
  3 38  1  0
  4 39  1  0
  4 40  1  0
  5 41  1  1
  8 42  1  0
  8 43  1  0
  8 44  1  0
  9 45  1  0
  9 46  1  0
  9 47  1  0
 10 48  1  6
 11 49  1  0
 11 50  1  0
 12 51  1  0
 12 52  1  0
 14 53  1  0
 14 54  1  0
 14 55  1  0
 15 56  1  1
 16 57  1  0
 16 58  1  0
 17 59  1  0
 19 60  1  6
 20 61  1  0
 20 62  1  0
 21 63  1  0
 21 64  1  0
 22 65  1  6
 23 66  1  0
 25 67  1  0
 25 68  1  0
 25 69  1  0
 26 70  1  0
 26 71  1  0
 26 72  1  0
 28 73  1  0
 28 74  1  0
 28 75  1  0
 29 76  1  0
 29 77  1  0
 30 78  1  0
 30 79  1  0
 32 80  1  0
 32 81  1  0
 32 82  1  0
M  END
>  <meeko>  (18) 
{"is_sidechain": [false], "intermolecular_energy": 2.731, "internal_energy": -0.839}

$$$$
