EPH_relaxed_0001_pdb2pqr_Repair_300_r2_0001_out
  PyMOL3.1          3D                             0

 82 86  0  0  1  0  0  0  0  0999 V2000
   -1.6360    8.6290   -1.8380 C   0  0  0  0  0  0  0  0  0  0  0  0
   -1.2190   10.3960   -0.1170 C   0  0  1  0  0  0  0  0  0  0  0  0
   -0.1970   10.1410    1.0230 C   0  0  0  0  0  0  0  0  0  0  0  0
    1.0540   10.9990    0.7030 C   0  0  0  0  0  0  0  0  0  0  0  0
    0.5910   11.9610   -0.4160 C   0  0  1  0  0  0  0  0  0  0  0  0
   -0.1600   13.1090    0.3290 C   0  0  0  0  0  0  0  0  0  0  0  0
    1.7100   12.5180   -1.3560 C   0  0  2  0  0  0  0  0  0  0  0  0
    2.7790   13.3790   -0.6590 C   0  0  0  0  0  0  0  0  0  0  0  0
    2.4850   14.8410   -0.6080 C   0  0  0  0  0  0  0  0  0  0  0  0
    1.5550   15.4790   -1.3420 C   0  0  0  0  0  0  0  0  0  0  0  0
    0.7470   14.7320   -2.4110 C   0  0  1  0  0  0  0  0  0  0  0  0
   -2.0380    9.1570   -0.4580 C   0  0  2  0  0  0  0  0  0  0  0  0
    0.7160   15.5690   -3.7170 C   0  0  0  0  0  0  0  0  0  0  0  0
    0.2080   16.9890   -3.4890 C   0  0  0  0  0  0  0  0  0  0  0  0
    1.0720   17.7190   -2.4630 C   0  0  2  0  0  0  0  0  0  0  0  0
    1.1850   16.9640   -1.1090 C   0  0  0  0  0  0  0  0  0  0  0  0
   -0.1750   17.0160   -0.3690 C   0  0  0  0  0  0  0  0  0  0  0  0
    2.1940   17.7350   -0.2160 C   0  0  0  0  0  0  0  0  0  0  0  0
    1.1660   13.2200   -2.6660 C   0  0  1  0  0  0  0  0  0  0  0  0
    2.3170   13.1560   -3.7150 C   0  0  0  0  0  0  0  0  0  0  0  0
   -0.0530   12.4480   -3.2960 C   0  0  0  0  0  0  0  0  0  0  0  0
   -3.5430    9.4810   -0.3750 C   0  0  0  0  0  0  0  0  0  0  0  0
   -1.0590   11.8180   -2.3140 C   0  0  0  0  0  0  0  0  0  0  0  0
   -0.3380   10.9980   -1.2410 C   0  0  2  0  0  0  0  0  0  0  0  0
    0.4090    9.8220   -1.9580 C   0  0  0  0  0  0  0  0  0  0  0  0
   -4.4350    8.2410   -0.2760 C   0  0  0  0  0  0  0  0  0  0  0  0
   -5.1470    7.9650   -1.5650 C   0  0  2  0  0  0  0  0  0  0  0  0
   -6.5080    7.2970   -1.6430 C   0  0  0  0  0  0  0  0  0  0  0  0
   -7.2360    6.8640   -0.4100 C   0  0  0  0  0  0  0  0  0  0  0  0
   -6.9040    6.6290   -2.9230 C   0  0  0  0  0  0  0  0  0  0  0  0
    2.3770   17.9150   -3.0150 O   0  0  0  0  0  0  0  0  0  0  0  0
   -6.3500    8.7210   -1.7590 O   0  0  0  0  0  0  0  0  0  0  0  0
   -0.9736    7.7589   -1.7190 H   0  0  0  0  0  0  0  0  0  0  0  0
   -2.5374    8.3303   -2.3932 H   0  0  0  0  0  0  0  0  0  0  0  0
   -1.1082    9.4185   -2.3932 H   0  0  0  0  0  0  0  0  0  0  0  0
   -1.8314    8.3616    0.2732 H   0  0  0  0  0  0  0  0  0  0  0  0
   -3.7154   10.1047    0.5146 H   0  0  0  0  0  0  0  0  0  0  0  0
   -3.8126    9.9971   -1.3082 H   0  0  0  0  0  0  0  0  0  0  0  0
   -3.8104    7.3722   -0.0209 H   0  0  0  0  0  0  0  0  0  0  0  0
   -5.1919    8.4247    0.5008 H   0  0  0  0  0  0  0  0  0  0  0  0
   -4.1940    7.7598   -2.0745 H   0  0  0  0  0  0  0  0  0  0  0  0
   -6.6798    7.1948    0.4795 H   0  0  0  0  0  0  0  0  0  0  0  0
   -8.2409    7.3113   -0.4014 H   0  0  0  0  0  0  0  0  0  0  0  0
   -7.3227    5.7675   -0.4014 H   0  0  0  0  0  0  0  0  0  0  0  0
   -7.4531    5.7027   -2.6986 H   0  0  0  0  0  0  0  0  0  0  0  0
   -7.5475    7.3048   -3.5055 H   0  0  0  0  0  0  0  0  0  0  0  0
   -6.0023    6.3888   -3.5055 H   0  0  0  0  0  0  0  0  0  0  0  0
   -2.0329   11.0912    0.1363 H   0  0  0  0  0  0  0  0  0  0  0  0
   -0.6256   10.4423    1.9902 H   0  0  0  0  0  0  0  0  0  0  0  0
    0.0624    9.0741    1.0892 H   0  0  0  0  0  0  0  0  0  0  0  0
    1.3760   11.5626    1.5911 H   0  0  0  0  0  0  0  0  0  0  0  0
    1.9137   10.3851    0.3963 H   0  0  0  0  0  0  0  0  0  0  0  0
   -0.0654   12.9645    1.4154 H   0  0  0  0  0  0  0  0  0  0  0  0
    0.2797   14.0774    0.0483 H   0  0  0  0  0  0  0  0  0  0  0  0
   -1.2235   13.0941    0.0483 H   0  0  0  0  0  0  0  0  0  0  0  0
    2.2270   11.6015   -1.6764 H   0  0  0  0  0  0  0  0  0  0  0  0
    2.8861   13.0174    0.3743 H   0  0  0  0  0  0  0  0  0  0  0  0
    3.6945   13.2731   -1.2595 H   0  0  0  0  0  0  0  0  0  0  0  0
    3.0795   15.4494    0.0894 H   0  0  0  0  0  0  0  0  0  0  0  0
   -0.2714   14.6326   -2.0073 H   0  0  0  0  0  0  0  0  0  0  0  0
    1.7354   15.6207   -4.1271 H   0  0  0  0  0  0  0  0  0  0  0  0
    0.0239   15.0745   -4.4145 H   0  0  0  0  0  0  0  0  0  0  0  0
    0.2373   17.5391   -4.4411 H   0  0  0  0  0  0  0  0  0  0  0  0
   -0.8222   16.9365   -3.1070 H   0  0  0  0  0  0  0  0  0  0  0  0
    0.5843   18.6808   -2.2458 H   0  0  0  0  0  0  0  0  0  0  0  0
    2.4450   17.3620   -3.8120 H   0  0  0  0  0  0  0  0  0  0  0  0
   -0.0019   17.0094    0.7173 H   0  0  0  0  0  0  0  0  0  0  0  0
   -0.7101   17.9353   -0.6494 H   0  0  0  0  0  0  0  0  0  0  0  0
   -0.7787   16.1403   -0.6494 H   0  0  0  0  0  0  0  0  0  0  0  0
    1.9583   17.5549    0.8432 H   0  0  0  0  0  0  0  0  0  0  0  0
    3.2146   17.3846   -0.4292 H   0  0  0  0  0  0  0  0  0  0  0  0
    2.1240   18.8119   -0.4292 H   0  0  0  0  0  0  0  0  0  0  0  0
    3.2847   13.1022   -3.1947 H   0  0  0  0  0  0  0  0  0  0  0  0
    2.1895   12.2636   -4.3453 H   0  0  0  0  0  0  0  0  0  0  0  0
    2.2892   14.0571   -4.3453 H   0  0  0  0  0  0  0  0  0  0  0  0
   -0.6057   13.1583   -3.9285 H   0  0  0  0  0  0  0  0  0  0  0  0
    0.3920   11.5992   -3.8360 H   0  0  0  0  0  0  0  0  0  0  0  0
   -1.6364   12.6182   -1.8278 H   0  0  0  0  0  0  0  0  0  0  0  0
   -1.7263   11.1489   -2.8770 H   0  0  0  0  0  0  0  0  0  0  0  0
    0.8383    9.1462   -1.2036 H   0  0  0  0  0  0  0  0  0  0  0  0
   -0.3015    9.2655   -2.5869 H   0  0  0  0  0  0  0  0  0  0  0  0
    1.2147   10.2287   -2.5869 H   0  0  0  0  0  0  0  0  0  0  0  0
  1 12  1  0  0  0  0
  1 33  1  0  0  0  0
  1 34  1  0  0  0  0
  1 35  1  0  0  0  0
  2  3  1  0  0  0  0
  2 48  1  0  0  0  0
  3  4  1  0  0  0  0
  3 49  1  0  0  0  0
  3 50  1  0  0  0  0
  4  5  1  0  0  0  0
  4 51  1  0  0  0  0
  4 52  1  0  0  0  0
  5  6  1  0  0  0  0
  5  7  1  0  0  0  0
  6 53  1  0  0  0  0
  6 54  1  0  0  0  0
  6 55  1  0  0  0  0
  7  8  1  0  0  0  0
  7 56  1  0  0  0  0
  8  9  1  0  0  0  0
  8 57  1  0  0  0  0
  8 58  1  0  0  0  0
  9 10  2  0  0  0  0
  9 59  1  0  0  0  0
 10 11  1  0  0  0  0
 11 13  1  0  0  0  0
 11 19  1  0  0  0  0
 11 60  1  0  0  0  0
  2 12  1  0  0  0  0
 12 22  1  0  0  0  0
 12 36  1  0  0  0  0
 13 14  1  0  0  0  0
 13 61  1  0  0  0  0
 13 62  1  0  0  0  0
 14 15  1  0  0  0  0
 14 63  1  0  0  0  0
 14 64  1  0  0  0  0
 15 16  1  0  0  0  0
 15 31  1  0  0  0  0
 15 65  1  0  0  0  0
 10 16  1  0  0  0  0
 16 17  1  0  0  0  0
 16 18  1  0  0  0  0
 17 67  1  0  0  0  0
 17 68  1  0  0  0  0
 17 69  1  0  0  0  0
 18 70  1  0  0  0  0
 18 71  1  0  0  0  0
 18 72  1  0  0  0  0
  7 19  1  0  0  0  0
 19 20  1  0  0  0  0
 19 21  1  0  0  0  0
 20 73  1  0  0  0  0
 20 74  1  0  0  0  0
 20 75  1  0  0  0  0
 21 23  1  0  0  0  0
 21 76  1  0  0  0  0
 21 77  1  0  0  0  0
 22 26  1  0  0  0  0
 22 37  1  0  0  0  0
 22 38  1  0  0  0  0
 23 24  1  0  0  0  0
 23 78  1  0  0  0  0
 23 79  1  0  0  0  0
  2 24  1  0  0  0  0
  5 24  1  0  0  0  0
 24 25  1  0  0  0  0
 25 80  1  0  0  0  0
 25 81  1  0  0  0  0
 25 82  1  0  0  0  0
 26 27  1  0  0  0  0
 26 39  1  0  0  0  0
 26 40  1  0  0  0  0
 27 32  1  0  0  0  0
 27 41  1  0  0  0  0
 27 28  1  0  0  0  0
 28 29  1  0  0  0  0
 28 30  1  0  0  0  0
 29 42  1  0  0  0  0
 29 43  1  0  0  0  0
 29 44  1  0  0  0  0
 30 45  1  0  0  0  0
 30 46  1  0  0  0  0
 30 47  1  0  0  0  0
 31 66  1  0  0  0  0
 28 32  1  0  0  0  0
M  END
$$$$
