EPH_relaxed_0001_pdb2pqr_Repair_161_r2_0001_out
  PyMOL3.1          3D                             0

 82 86  0  0  1  0  0  0  0  0999 V2000
   -1.7130    8.5940   -1.8840 C   0  0  0  0  0  0  0  0  0  0  0  0
   -1.2360   10.3280   -0.1450 C   0  0  1  0  0  0  0  0  0  0  0  0
   -0.2120   10.0330    0.9840 C   0  0  0  0  0  0  0  0  0  0  0  0
    1.0590   10.8610    0.6630 C   0  0  0  0  0  0  0  0  0  0  0  0
    0.6120   11.8490   -0.4400 C   0  0  1  0  0  0  0  0  0  0  0  0
   -0.1020   13.0070    0.3250 C   0  0  0  0  0  0  0  0  0  0  0  0
    1.7380   12.3880   -1.3820 C   0  0  2  0  0  0  0  0  0  0  0  0
    2.8340   13.2110   -0.6840 C   0  0  0  0  0  0  0  0  0  0  0  0
    2.5800   14.6800   -0.6120 C   0  0  0  0  0  0  0  0  0  0  0  0
    1.6610   15.3510   -1.3310 C   0  0  0  0  0  0  0  0  0  0  0  0
    0.8260   14.6390   -2.4020 C   0  0  1  0  0  0  0  0  0  0  0  0
   -2.0900    9.1160   -0.4940 C   0  0  2  0  0  0  0  0  0  0  0  0
    0.8060   15.4930   -3.6970 C   0  0  0  0  0  0  0  0  0  0  0  0
    0.3380   16.9230   -3.4470 C   0  0  0  0  0  0  0  0  0  0  0  0
    1.2290   17.6180   -2.4200 C   0  0  2  0  0  0  0  0  0  0  0  0
    1.3330   16.8430   -1.0760 C   0  0  0  0  0  0  0  0  0  0  0  0
   -0.0190   16.9220   -0.3250 C   0  0  0  0  0  0  0  0  0  0  0  0
    2.3690   17.5750   -0.1820 C   0  0  0  0  0  0  0  0  0  0  0  0
    1.2020   13.1200   -2.6790 C   0  0  1  0  0  0  0  0  0  0  0  0
    2.3430   13.0390   -3.7390 C   0  0  0  0  0  0  0  0  0  0  0  0
   -0.0410   12.3880   -3.3080 C   0  0  0  0  0  0  0  0  0  0  0  0
   -3.5850    9.4790   -0.3960 C   0  0  0  0  0  0  0  0  0  0  0  0
   -1.0560   11.7730   -2.3260 C   0  0  0  0  0  0  0  0  0  0  0  0
   -0.3490   10.9210   -1.2680 C   0  0  2  0  0  0  0  0  0  0  0  0
    0.3610    9.7350   -2.0060 C   0  0  0  0  0  0  0  0  0  0  0  0
   -4.5050    8.2640   -0.2380 C   0  0  0  0  0  0  0  0  0  0  0  0
   -5.2040    7.9280   -1.5200 C   0  0  2  0  0  0  0  0  0  0  0  0
   -6.6020    7.3400   -1.5820 C   0  0  0  0  0  0  0  0  0  0  0  0
   -7.3830    7.0530   -0.3380 C   0  0  0  0  0  0  0  0  0  0  0  0
   -7.0110    6.5950   -2.8140 C   0  0  0  0  0  0  0  0  0  0  0  0
    2.5340   17.7860   -2.9810 O   0  0  0  0  0  0  0  0  0  0  0  0
   -6.3530    8.7370   -1.8060 O   0  0  0  0  0  0  0  0  0  0  0  0
   -1.0718    7.7062   -1.7808 H   0  0  0  0  0  0  0  0  0  0  0  0
   -2.6264    8.3246   -2.4347 H   0  0  0  0  0  0  0  0  0  0  0  0
   -1.1701    9.3763   -2.4347 H   0  0  0  0  0  0  0  0  0  0  0  0
   -1.8990    8.3069    0.2263 H   0  0  0  0  0  0  0  0  0  0  0  0
   -3.7262   10.1370    0.4741 H   0  0  0  0  0  0  0  0  0  0  0  0
   -3.8594    9.9690   -1.3418 H   0  0  0  0  0  0  0  0  0  0  0  0
   -3.9026    7.3992    0.0769 H   0  0  0  0  0  0  0  0  0  0  0  0
   -5.2686    8.5076    0.5154 H   0  0  0  0  0  0  0  0  0  0  0  0
   -4.2545    7.6248   -1.9853 H   0  0  0  0  0  0  0  0  0  0  0  0
   -6.7652    7.2800    0.5434 H   0  0  0  0  0  0  0  0  0  0  0  0
   -8.2887    7.6770   -0.3215 H   0  0  0  0  0  0  0  0  0  0  0  0
   -7.6691    5.9910   -0.3215 H   0  0  0  0  0  0  0  0  0  0  0  0
   -7.5220    5.6642   -2.5269 H   0  0  0  0  0  0  0  0  0  0  0  0
   -7.6931    7.2189   -3.4103 H   0  0  0  0  0  0  0  0  0  0  0  0
   -6.1185    6.3544   -3.4103 H   0  0  0  0  0  0  0  0  0  0  0  0
   -2.0298   11.0407    0.1232 H   0  0  0  0  0  0  0  0  0  0  0  0
   -0.6247   10.3348    1.9580 H   0  0  0  0  0  0  0  0  0  0  0  0
    0.0193    8.9589    1.0365 H   0  0  0  0  0  0  0  0  0  0  0  0
    1.4039   11.4046    1.5549 H   0  0  0  0  0  0  0  0  0  0  0  0
    1.8991   10.2282    0.3410 H   0  0  0  0  0  0  0  0  0  0  0  0
   -0.0029   12.8464    1.4087 H   0  0  0  0  0  0  0  0  0  0  0  0
    0.3614   13.9668    0.0527 H   0  0  0  0  0  0  0  0  0  0  0  0
   -1.1676   13.0240    0.0527 H   0  0  0  0  0  0  0  0  0  0  0  0
    2.2286   11.4624   -1.7176 H   0  0  0  0  0  0  0  0  0  0  0  0
    2.9398   12.8336    0.3438 H   0  0  0  0  0  0  0  0  0  0  0  0
    3.7412   13.0887   -1.2939 H   0  0  0  0  0  0  0  0  0  0  0  0
    3.1960   15.2637    0.0879 H   0  0  0  0  0  0  0  0  0  0  0  0
   -0.1912   14.5609   -1.9908 H   0  0  0  0  0  0  0  0  0  0  0  0
    1.8228   15.5228   -4.1156 H   0  0  0  0  0  0  0  0  0  0  0  0
    0.0949   15.0259   -4.3942 H   0  0  0  0  0  0  0  0  0  0  0  0
    0.3738   17.4838   -4.3926 H   0  0  0  0  0  0  0  0  0  0  0  0
   -0.6898   16.8924   -3.0561 H   0  0  0  0  0  0  0  0  0  0  0  0
    0.7691   18.5897   -2.1871 H   0  0  0  0  0  0  0  0  0  0  0  0
    2.9350   18.5670   -2.5640 H   0  0  0  0  0  0  0  0  0  0  0  0
    0.1630   16.9114    0.7598 H   0  0  0  0  0  0  0  0  0  0  0  0
   -0.5378   17.8520   -0.6007 H   0  0  0  0  0  0  0  0  0  0  0  0
   -0.6426   16.0588   -0.6007 H   0  0  0  0  0  0  0  0  0  0  0  0
    2.1258   17.4032    0.8769 H   0  0  0  0  0  0  0  0  0  0  0  0
    3.3760   17.1868   -0.3946 H   0  0  0  0  0  0  0  0  0  0  0  0
    2.3395   18.6539   -0.3946 H   0  0  0  0  0  0  0  0  0  0  0  0
    3.3144   12.9700   -3.2275 H   0  0  0  0  0  0  0  0  0  0  0  0
    2.1961   12.1490   -4.3686 H   0  0  0  0  0  0  0  0  0  0  0  0
    2.3233   13.9408   -4.3686 H   0  0  0  0  0  0  0  0  0  0  0  0
   -0.5795   13.1199   -3.9279 H   0  0  0  0  0  0  0  0  0  0  0  0
    0.3776   11.5342   -3.8610 H   0  0  0  0  0  0  0  0  0  0  0  0
   -1.6084   12.5822   -1.8259 H   0  0  0  0  0  0  0  0  0  0  0  0
   -1.7449   11.1286   -2.8919 H   0  0  0  0  0  0  0  0  0  0  0  0
    0.7780    9.0384   -1.2638 H   0  0  0  0  0  0  0  0  0  0  0  0
   -0.3689    9.2057   -2.6361 H   0  0  0  0  0  0  0  0  0  0  0  0
    1.1723   10.1283   -2.6361 H   0  0  0  0  0  0  0  0  0  0  0  0
  1 12  1  0  0  0  0
  1 33  1  0  0  0  0
  1 34  1  0  0  0  0
  1 35  1  0  0  0  0
  2  3  1  0  0  0  0
  2 48  1  0  0  0  0
  3  4  1  0  0  0  0
  3 49  1  0  0  0  0
  3 50  1  0  0  0  0
  4  5  1  0  0  0  0
  4 51  1  0  0  0  0
  4 52  1  0  0  0  0
  5  6  1  0  0  0  0
  5  7  1  0  0  0  0
  6 53  1  0  0  0  0
  6 54  1  0  0  0  0
  6 55  1  0  0  0  0
  7  8  1  0  0  0  0
  7 56  1  0  0  0  0
  8  9  1  0  0  0  0
  8 57  1  0  0  0  0
  8 58  1  0  0  0  0
  9 10  2  0  0  0  0
  9 59  1  0  0  0  0
 10 11  1  0  0  0  0
 11 13  1  0  0  0  0
 11 19  1  0  0  0  0
 11 60  1  0  0  0  0
  2 12  1  0  0  0  0
 12 22  1  0  0  0  0
 12 36  1  0  0  0  0
 13 14  1  0  0  0  0
 13 61  1  0  0  0  0
 13 62  1  0  0  0  0
 14 15  1  0  0  0  0
 14 63  1  0  0  0  0
 14 64  1  0  0  0  0
 15 16  1  0  0  0  0
 15 31  1  0  0  0  0
 15 65  1  0  0  0  0
 10 16  1  0  0  0  0
 16 17  1  0  0  0  0
 16 18  1  0  0  0  0
 17 67  1  0  0  0  0
 17 68  1  0  0  0  0
 17 69  1  0  0  0  0
 18 70  1  0  0  0  0
 18 71  1  0  0  0  0
 18 72  1  0  0  0  0
  7 19  1  0  0  0  0
 19 20  1  0  0  0  0
 19 21  1  0  0  0  0
 20 73  1  0  0  0  0
 20 74  1  0  0  0  0
 20 75  1  0  0  0  0
 21 23  1  0  0  0  0
 21 76  1  0  0  0  0
 21 77  1  0  0  0  0
 22 26  1  0  0  0  0
 22 37  1  0  0  0  0
 22 38  1  0  0  0  0
 23 24  1  0  0  0  0
 23 78  1  0  0  0  0
 23 79  1  0  0  0  0
  2 24  1  0  0  0  0
  5 24  1  0  0  0  0
 24 25  1  0  0  0  0
 25 80  1  0  0  0  0
 25 81  1  0  0  0  0
 25 82  1  0  0  0  0
 26 27  1  0  0  0  0
 26 39  1  0  0  0  0
 26 40  1  0  0  0  0
 27 32  1  0  0  0  0
 27 41  1  0  0  0  0
 27 28  1  0  0  0  0
 28 29  1  0  0  0  0
 28 30  1  0  0  0  0
 29 42  1  0  0  0  0
 29 43  1  0  0  0  0
 29 44  1  0  0  0  0
 30 45  1  0  0  0  0
 30 46  1  0  0  0  0
 30 47  1  0  0  0  0
 31 66  1  0  0  0  0
 28 32  1  0  0  0  0
M  END
$$$$
