EPH_relaxed_0001_pdb2pqr_Repair_118_r2_0001_out
  PyMOL3.1          3D                             0

 82 86  0  0  1  0  0  0  0  0999 V2000
   -1.2930    8.4100   -1.3820 C   0  0  0  0  0  0  0  0  0  0  0  0
   -1.0750   10.4860   -0.0030 C   0  0  1  0  0  0  0  0  0  0  0  0
    0.0270   10.1710    1.0430 C   0  0  0  0  0  0  0  0  0  0  0  0
    1.2730   11.0040    0.6440 C   0  0  0  0  0  0  0  0  0  0  0  0
    0.7490   12.0110   -0.4070 C   0  0  1  0  0  0  0  0  0  0  0  0
    0.0940   13.1560    0.4270 C   0  0  0  0  0  0  0  0  0  0  0  0
    1.8040   12.5650   -1.4190 C   0  0  2  0  0  0  0  0  0  0  0  0
    2.9500   13.3760   -0.7890 C   0  0  0  0  0  0  0  0  0  0  0  0
    2.7040   14.8440   -0.6750 C   0  0  0  0  0  0  0  0  0  0  0  0
    1.7360   15.5270   -1.3140 C   0  0  0  0  0  0  0  0  0  0  0  0
    0.8240   14.8330   -2.3330 C   0  0  1  0  0  0  0  0  0  0  0  0
   -1.9550    9.2800   -0.3100 C   0  0  2  0  0  0  0  0  0  0  0  0
    0.7120   15.7080   -3.6090 C   0  0  0  0  0  0  0  0  0  0  0  0
    0.2650   17.1350   -3.3020 C   0  0  0  0  0  0  0  0  0  0  0  0
    1.2300   17.8110   -2.3310 C   0  0  2  0  0  0  0  0  0  0  0  0
    1.4300   17.0140   -1.0110 C   0  0  0  0  0  0  0  0  0  0  0  0
    0.1360   17.0810   -0.1620 C   0  0  0  0  0  0  0  0  0  0  0  0
    2.5300   17.7310   -0.1830 C   0  0  0  0  0  0  0  0  0  0  0  0
    1.1770   13.3180   -2.6610 C   0  0  1  0  0  0  0  0  0  0  0  0
    2.2370   13.2550   -3.8030 C   0  0  0  0  0  0  0  0  0  0  0  0
   -0.1110   12.5980   -3.2110 C   0  0  0  0  0  0  0  0  0  0  0  0
   -3.3630    9.7470   -0.7290 C   0  0  0  0  0  0  0  0  0  0  0  0
   -1.0530   11.9670   -2.1680 C   0  0  0  0  0  0  0  0  0  0  0  0
   -0.2710   11.0970   -1.1780 C   0  0  2  0  0  0  0  0  0  0  0  0
    0.3810    9.9230   -1.9850 C   0  0  0  0  0  0  0  0  0  0  0  0
   -4.4560    8.7030   -0.4860 C   0  0  0  0  0  0  0  0  0  0  0  0
   -4.9270    8.0850   -1.7680 C   0  0  2  0  0  0  0  0  0  0  0  0
   -6.3070    7.4810   -1.9480 C   0  0  0  0  0  0  0  0  0  0  0  0
   -7.3030    7.4650   -0.8310 C   0  0  0  0  0  0  0  0  0  0  0  0
   -6.5120    6.4790   -3.0400 C   0  0  0  0  0  0  0  0  0  0  0  0
    2.4910   17.9880   -2.9820 O   0  0  0  0  0  0  0  0  0  0  0  0
   -5.9840    8.7980   -2.4240 O   0  0  0  0  0  0  0  0  0  0  0  0
   -0.6948    7.6238   -0.8982 H   0  0  0  0  0  0  0  0  0  0  0  0
   -2.0691    7.9467   -2.0090 H   0  0  0  0  0  0  0  0  0  0  0  0
   -0.6396    9.0344   -2.0090 H   0  0  0  0  0  0  0  0  0  0  0  0
   -2.0680    8.6631    0.5937 H   0  0  0  0  0  0  0  0  0  0  0  0
   -3.6135   10.6518   -0.1558 H   0  0  0  0  0  0  0  0  0  0  0  0
   -3.3307    9.9319   -1.8129 H   0  0  0  0  0  0  0  0  0  0  0  0
   -4.0551    7.9120    0.1649 H   0  0  0  0  0  0  0  0  0  0  0  0
   -5.3121    9.2064   -0.0131 H   0  0  0  0  0  0  0  0  0  0  0  0
   -3.9191    7.6982   -1.9790 H   0  0  0  0  0  0  0  0  0  0  0  0
   -6.7731    7.4735    0.1329 H   0  0  0  0  0  0  0  0  0  0  0  0
   -7.9484    8.3529   -0.9025 H   0  0  0  0  0  0  0  0  0  0  0  0
   -7.9195    6.5568   -0.9025 H   0  0  0  0  0  0  0  0  0  0  0  0
   -6.7140    5.4919   -2.5987 H   0  0  0  0  0  0  0  0  0  0  0  0
   -7.3663    6.7842   -3.6621 H   0  0  0  0  0  0  0  0  0  0  0  0
   -5.6065    6.4242   -3.6621 H   0  0  0  0  0  0  0  0  0  0  0  0
   -1.8453   11.1950    0.3347 H   0  0  0  0  0  0  0  0  0  0  0  0
   -0.3132   10.4564    2.0494 H   0  0  0  0  0  0  0  0  0  0  0  0
    0.2594    9.0960    1.0607 H   0  0  0  0  0  0  0  0  0  0  0  0
    1.6829   11.5323    1.5174 H   0  0  0  0  0  0  0  0  0  0  0  0
    2.0862   10.3761    0.2510 H   0  0  0  0  0  0  0  0  0  0  0  0
    0.2153   12.9439    1.4995 H   0  0  0  0  0  0  0  0  0  0  0  0
    0.5821   14.1115    0.1847 H   0  0  0  0  0  0  0  0  0  0  0  0
   -0.9771   13.2196    0.1847 H   0  0  0  0  0  0  0  0  0  0  0  0
    2.2671   11.6447   -1.8044 H   0  0  0  0  0  0  0  0  0  0  0  0
    3.1296   12.9818    0.2221 H   0  0  0  0  0  0  0  0  0  0  0  0
    3.8105   13.2630   -1.4649 H   0  0  0  0  0  0  0  0  0  0  0  0
    3.3703   15.4161   -0.0126 H   0  0  0  0  0  0  0  0  0  0  0  0
   -0.1611   14.7488   -1.8509 H   0  0  0  0  0  0  0  0  0  0  0  0
    1.6960   15.7444   -4.0993 H   0  0  0  0  0  0  0  0  0  0  0  0
   -0.0481   15.2526   -4.2608 H   0  0  0  0  0  0  0  0  0  0  0  0
    0.2331   17.7117   -4.2381 H   0  0  0  0  0  0  0  0  0  0  0  0
   -0.7321   17.0991   -2.8388 H   0  0  0  0  0  0  0  0  0  0  0  0
    0.7897   18.7788   -2.0491 H   0  0  0  0  0  0  0  0  0  0  0  0
    2.4500   18.8200   -3.4830 H   0  0  0  0  0  0  0  0  0  0  0  0
    0.3973   17.0675    0.9064 H   0  0  0  0  0  0  0  0  0  0  0  0
   -0.4077   18.0085   -0.3948 H   0  0  0  0  0  0  0  0  0  0  0  0
   -0.5005   16.2146   -0.3948 H   0  0  0  0  0  0  0  0  0  0  0  0
    2.3264   17.5983    0.8898 H   0  0  0  0  0  0  0  0  0  0  0  0
    3.5120   17.2990   -0.4260 H   0  0  0  0  0  0  0  0  0  0  0  0
    2.5311   18.8038   -0.4260 H   0  0  0  0  0  0  0  0  0  0  0  0
    3.2444   13.1951   -3.3653 H   0  0  0  0  0  0  0  0  0  0  0  0
    2.0539   12.3662   -4.4246 H   0  0  0  0  0  0  0  0  0  0  0  0
    2.1604   14.1593   -4.4246 H   0  0  0  0  0  0  0  0  0  0  0  0
   -0.6915   13.3412   -3.7772 H   0  0  0  0  0  0  0  0  0  0  0  0
    0.2641   11.7537   -3.8081 H   0  0  0  0  0  0  0  0  0  0  0  0
   -1.5665   12.7678   -1.6157 H   0  0  0  0  0  0  0  0  0  0  0  0
   -1.7824   11.3323   -2.6926 H   0  0  0  0  0  0  0  0  0  0  0  0
    0.7929    9.1812   -1.2849 H   0  0  0  0  0  0  0  0  0  0  0  0
   -0.3813    9.4457   -2.6183 H   0  0  0  0  0  0  0  0  0  0  0  0
    1.1891   10.3178   -2.6183 H   0  0  0  0  0  0  0  0  0  0  0  0
  1 12  1  0  0  0  0
  1 33  1  0  0  0  0
  1 34  1  0  0  0  0
  1 35  1  0  0  0  0
  2  3  1  0  0  0  0
  2 48  1  0  0  0  0
  3  4  1  0  0  0  0
  3 49  1  0  0  0  0
  3 50  1  0  0  0  0
  4  5  1  0  0  0  0
  4 51  1  0  0  0  0
  4 52  1  0  0  0  0
  5  6  1  0  0  0  0
  5  7  1  0  0  0  0
  6 53  1  0  0  0  0
  6 54  1  0  0  0  0
  6 55  1  0  0  0  0
  7  8  1  0  0  0  0
  7 56  1  0  0  0  0
  8  9  1  0  0  0  0
  8 57  1  0  0  0  0
  8 58  1  0  0  0  0
  9 10  2  0  0  0  0
  9 59  1  0  0  0  0
 10 11  1  0  0  0  0
 11 13  1  0  0  0  0
 11 19  1  0  0  0  0
 11 60  1  0  0  0  0
  2 12  1  0  0  0  0
 12 22  1  0  0  0  0
 12 36  1  0  0  0  0
 13 14  1  0  0  0  0
 13 61  1  0  0  0  0
 13 62  1  0  0  0  0
 14 15  1  0  0  0  0
 14 63  1  0  0  0  0
 14 64  1  0  0  0  0
 15 16  1  0  0  0  0
 15 31  1  0  0  0  0
 15 65  1  0  0  0  0
 10 16  1  0  0  0  0
 16 17  1  0  0  0  0
 16 18  1  0  0  0  0
 17 67  1  0  0  0  0
 17 68  1  0  0  0  0
 17 69  1  0  0  0  0
 18 70  1  0  0  0  0
 18 71  1  0  0  0  0
 18 72  1  0  0  0  0
  7 19  1  0  0  0  0
 19 20  1  0  0  0  0
 19 21  1  0  0  0  0
 20 73  1  0  0  0  0
 20 74  1  0  0  0  0
 20 75  1  0  0  0  0
 21 23  1  0  0  0  0
 21 76  1  0  0  0  0
 21 77  1  0  0  0  0
 22 26  1  0  0  0  0
 22 37  1  0  0  0  0
 22 38  1  0  0  0  0
 23 24  1  0  0  0  0
 23 78  1  0  0  0  0
 23 79  1  0  0  0  0
  2 24  1  0  0  0  0
  5 24  1  0  0  0  0
 24 25  1  0  0  0  0
 25 80  1  0  0  0  0
 25 81  1  0  0  0  0
 25 82  1  0  0  0  0
 26 27  1  0  0  0  0
 26 39  1  0  0  0  0
 26 40  1  0  0  0  0
 27 32  1  0  0  0  0
 27 41  1  0  0  0  0
 27 28  1  0  0  0  0
 28 29  1  0  0  0  0
 28 30  1  0  0  0  0
 29 42  1  0  0  0  0
 29 43  1  0  0  0  0
 29 44  1  0  0  0  0
 30 45  1  0  0  0  0
 30 46  1  0  0  0  0
 30 47  1  0  0  0  0
 31 66  1  0  0  0  0
 28 32  1  0  0  0  0
M  END
$$$$
