EPH_relaxed_0001_pdb2pqr_Repair_10_r2_0001_out
  PyMOL3.1          3D                             0

 82 86  0  0  1  0  0  0  0  0999 V2000
   -1.6360    8.5670   -1.8130 C   0  0  0  0  0  0  0  0  0  0  0  0
   -1.1820   10.3490   -0.1160 C   0  0  1  0  0  0  0  0  0  0  0  0
   -0.1270   10.0380    0.9790 C   0  0  0  0  0  0  0  0  0  0  0  0
    1.1360   10.8670    0.6310 C   0  0  0  0  0  0  0  0  0  0  0  0
    0.6610   11.8690   -0.4470 C   0  0  1  0  0  0  0  0  0  0  0  0
   -0.0290   13.0200    0.3520 C   0  0  0  0  0  0  0  0  0  0  0  0
    1.7600   12.4160   -1.4140 C   0  0  2  0  0  0  0  0  0  0  0  0
    2.8780   13.2290   -0.7390 C   0  0  0  0  0  0  0  0  0  0  0  0
    2.6300   14.6980   -0.6430 C   0  0  0  0  0  0  0  0  0  0  0  0
    1.6920   15.3790   -1.3270 C   0  0  0  0  0  0  0  0  0  0  0  0
    0.8240   14.6810   -2.3820 C   0  0  1  0  0  0  0  0  0  0  0  0
   -2.0490    9.1420   -0.4550 C   0  0  2  0  0  0  0  0  0  0  0  0
    0.7700   15.5500   -3.6660 C   0  0  0  0  0  0  0  0  0  0  0  0
    0.3120   16.9780   -3.3870 C   0  0  0  0  0  0  0  0  0  0  0  0
    1.2340   17.6580   -2.3770 C   0  0  2  0  0  0  0  0  0  0  0  0
    1.3740   16.8680   -1.0460 C   0  0  0  0  0  0  0  0  0  0  0  0
    0.0450   16.9410   -0.2550 C   0  0  0  0  0  0  0  0  0  0  0  0
    2.4380   17.5880   -0.1740 C   0  0  0  0  0  0  0  0  0  0  0  0
    1.1890   13.1640   -2.6870 C   0  0  1  0  0  0  0  0  0  0  0  0
    2.2990   13.0930   -3.7800 C   0  0  0  0  0  0  0  0  0  0  0  0
   -0.0740   12.4420   -3.2890 C   0  0  0  0  0  0  0  0  0  0  0  0
   -3.5390    9.5370   -0.4210 C   0  0  0  0  0  0  0  0  0  0  0  0
   -1.0620   11.8180   -2.2850 C   0  0  0  0  0  0  0  0  0  0  0  0
   -0.3260   10.9520   -1.2580 C   0  0  2  0  0  0  0  0  0  0  0  0
    0.3600    9.7730   -2.0290 C   0  0  0  0  0  0  0  0  0  0  0  0
   -4.4880    8.3460   -0.2640 C   0  0  0  0  0  0  0  0  0  0  0  0
   -5.1560    7.9960   -1.5590 C   0  0  2  0  0  0  0  0  0  0  0  0
   -6.5010    7.2980   -1.6450 C   0  0  0  0  0  0  0  0  0  0  0  0
   -7.2570    6.9080   -0.4140 C   0  0  0  0  0  0  0  0  0  0  0  0
   -6.8460    6.5630   -2.9020 C   0  0  0  0  0  0  0  0  0  0  0  0
    2.5230   17.8300   -2.9740 O   0  0  0  0  0  0  0  0  0  0  0  0
   -6.3660    8.7170   -1.8230 O   0  0  0  0  0  0  0  0  0  0  0  0
   -1.0006    7.6824   -1.6587 H   0  0  0  0  0  0  0  0  0  0  0  0
   -2.5348    8.2788   -2.3778 H   0  0  0  0  0  0  0  0  0  0  0  0
   -1.0759    9.3267   -2.3778 H   0  0  0  0  0  0  0  0  0  0  0  0
   -1.8991    8.3539    0.2976 H   0  0  0  0  0  0  0  0  0  0  0  0
   -3.6976   10.2214    0.4255 H   0  0  0  0  0  0  0  0  0  0  0  0
   -3.7693   10.0061   -1.3889 H   0  0  0  0  0  0  0  0  0  0  0  0
   -3.9136    7.4762    0.0874 H   0  0  0  0  0  0  0  0  0  0  0  0
   -5.2680    8.6219    0.4609 H   0  0  0  0  0  0  0  0  0  0  0  0
   -4.1844    7.7867   -2.0303 H   0  0  0  0  0  0  0  0  0  0  0  0
   -6.6840    7.2036    0.4772 H   0  0  0  0  0  0  0  0  0  0  0  0
   -8.2331    7.4150   -0.4071 H   0  0  0  0  0  0  0  0  0  0  0  0
   -7.4096    5.8187   -0.4071 H   0  0  0  0  0  0  0  0  0  0  0  0
   -7.3007    5.5943   -2.6473 H   0  0  0  0  0  0  0  0  0  0  0  0
   -7.5585    7.1588   -3.4914 H   0  0  0  0  0  0  0  0  0  0  0  0
   -5.9324    6.3956   -3.4914 H   0  0  0  0  0  0  0  0  0  0  0  0
   -1.9652   11.0609    0.1838 H   0  0  0  0  0  0  0  0  0  0  0  0
   -0.5105   10.3289    1.9681 H   0  0  0  0  0  0  0  0  0  0  0  0
    0.1029    8.9628    1.0122 H   0  0  0  0  0  0  0  0  0  0  0  0
    1.5078   11.3993    1.5189 H   0  0  0  0  0  0  0  0  0  0  0  0
    1.9646   10.2358    0.2773 H   0  0  0  0  0  0  0  0  0  0  0  0
    0.0818   12.8352    1.4307 H   0  0  0  0  0  0  0  0  0  0  0  0
    0.4429   13.9795    0.0940 H   0  0  0  0  0  0  0  0  0  0  0  0
   -1.0977   13.0559    0.0940 H   0  0  0  0  0  0  0  0  0  0  0  0
    2.2382   11.4929   -1.7734 H   0  0  0  0  0  0  0  0  0  0  0  0
    3.0127   12.8398    0.2810 H   0  0  0  0  0  0  0  0  0  0  0  0
    3.7666   13.1117   -1.3766 H   0  0  0  0  0  0  0  0  0  0  0  0
    3.2678   15.2724    0.0449 H   0  0  0  0  0  0  0  0  0  0  0  0
   -0.1815   14.6004   -1.9433 H   0  0  0  0  0  0  0  0  0  0  0  0
    1.7749   15.5828   -4.1121 H   0  0  0  0  0  0  0  0  0  0  0  0
    0.0388   15.0922   -4.3485 H   0  0  0  0  0  0  0  0  0  0  0  0
    0.3228   17.5499   -4.3266 H   0  0  0  0  0  0  0  0  0  0  0  0
   -0.7049   16.9458   -2.9688 H   0  0  0  0  0  0  0  0  0  0  0  0
    0.7835   18.6277   -2.1186 H   0  0  0  0  0  0  0  0  0  0  0  0
    2.9720   16.9680   -2.9590 H   0  0  0  0  0  0  0  0  0  0  0  0
    0.2593   16.9292    0.8239 H   0  0  0  0  0  0  0  0  0  0  0  0
   -0.4850   17.8696   -0.5134 H   0  0  0  0  0  0  0  0  0  0  0  0
   -0.5835   16.0760   -0.5134 H   0  0  0  0  0  0  0  0  0  0  0  0
    2.2069   17.4316    0.8900 H   0  0  0  0  0  0  0  0  0  0  0  0
    3.4338   17.1774   -0.3971 H   0  0  0  0  0  0  0  0  0  0  0  0
    2.4271   18.6651   -0.3971 H   0  0  0  0  0  0  0  0  0  0  0  0
    3.2854   13.0299   -3.2973 H   0  0  0  0  0  0  0  0  0  0  0  0
    2.1400   12.2032   -4.4069 H   0  0  0  0  0  0  0  0  0  0  0  0
    2.2546   13.9958   -4.4069 H   0  0  0  0  0  0  0  0  0  0  0  0
   -0.6281   13.1824   -3.8847 H   0  0  0  0  0  0  0  0  0  0  0  0
    0.3262   11.5938   -3.8639 H   0  0  0  0  0  0  0  0  0  0  0  0
   -1.5974   12.6225   -1.7596 H   0  0  0  0  0  0  0  0  0  0  0  0
   -1.7691   11.1821   -2.8378 H   0  0  0  0  0  0  0  0  0  0  0  0
    0.7772    9.0560   -1.3066 H   0  0  0  0  0  0  0  0  0  0  0  0
   -0.3841    9.2660   -2.6608 H   0  0  0  0  0  0  0  0  0  0  0  0
    1.1685   10.1693   -2.6608 H   0  0  0  0  0  0  0  0  0  0  0  0
  1 12  1  0  0  0  0
  1 33  1  0  0  0  0
  1 34  1  0  0  0  0
  1 35  1  0  0  0  0
  2  3  1  0  0  0  0
  2 48  1  0  0  0  0
  3  4  1  0  0  0  0
  3 49  1  0  0  0  0
  3 50  1  0  0  0  0
  4  5  1  0  0  0  0
  4 51  1  0  0  0  0
  4 52  1  0  0  0  0
  5  6  1  0  0  0  0
  5  7  1  0  0  0  0
  6 53  1  0  0  0  0
  6 54  1  0  0  0  0
  6 55  1  0  0  0  0
  7  8  1  0  0  0  0
  7 56  1  0  0  0  0
  8  9  1  0  0  0  0
  8 57  1  0  0  0  0
  8 58  1  0  0  0  0
  9 10  2  0  0  0  0
  9 59  1  0  0  0  0
 10 11  1  0  0  0  0
 11 13  1  0  0  0  0
 11 19  1  0  0  0  0
 11 60  1  0  0  0  0
  2 12  1  0  0  0  0
 12 22  1  0  0  0  0
 12 36  1  0  0  0  0
 13 14  1  0  0  0  0
 13 61  1  0  0  0  0
 13 62  1  0  0  0  0
 14 15  1  0  0  0  0
 14 63  1  0  0  0  0
 14 64  1  0  0  0  0
 15 16  1  0  0  0  0
 15 31  1  0  0  0  0
 15 65  1  0  0  0  0
 10 16  1  0  0  0  0
 16 17  1  0  0  0  0
 16 18  1  0  0  0  0
 17 67  1  0  0  0  0
 17 68  1  0  0  0  0
 17 69  1  0  0  0  0
 18 70  1  0  0  0  0
 18 71  1  0  0  0  0
 18 72  1  0  0  0  0
  7 19  1  0  0  0  0
 19 20  1  0  0  0  0
 19 21  1  0  0  0  0
 20 73  1  0  0  0  0
 20 74  1  0  0  0  0
 20 75  1  0  0  0  0
 21 23  1  0  0  0  0
 21 76  1  0  0  0  0
 21 77  1  0  0  0  0
 22 26  1  0  0  0  0
 22 37  1  0  0  0  0
 22 38  1  0  0  0  0
 23 24  1  0  0  0  0
 23 78  1  0  0  0  0
 23 79  1  0  0  0  0
  2 24  1  0  0  0  0
  5 24  1  0  0  0  0
 24 25  1  0  0  0  0
 25 80  1  0  0  0  0
 25 81  1  0  0  0  0
 25 82  1  0  0  0  0
 26 27  1  0  0  0  0
 26 39  1  0  0  0  0
 26 40  1  0  0  0  0
 27 32  1  0  0  0  0
 27 41  1  0  0  0  0
 27 28  1  0  0  0  0
 28 29  1  0  0  0  0
 28 30  1  0  0  0  0
 29 42  1  0  0  0  0
 29 43  1  0  0  0  0
 29 44  1  0  0  0  0
 30 45  1  0  0  0  0
 30 46  1  0  0  0  0
 30 47  1  0  0  0  0
 31 66  1  0  0  0  0
 28 32  1  0  0  0  0
M  END
$$$$
