EPH_relaxed_0001_pdb2pqr_Repair_140_r2_0001_out
  PyMOL3.1          3D                             0

 82 86  0  0  1  0  0  0  0  0999 V2000
   -1.6840    8.5850   -1.8840 C   0  0  0  0  0  0  0  0  0  0  0  0
   -1.2080   10.3150   -0.1410 C   0  0  1  0  0  0  0  0  0  0  0  0
   -0.1670   10.0090    0.9690 C   0  0  0  0  0  0  0  0  0  0  0  0
    1.0960   10.8470    0.6400 C   0  0  0  0  0  0  0  0  0  0  0  0
    0.6290   11.8470   -0.4430 C   0  0  1  0  0  0  0  0  0  0  0  0
   -0.0790   12.9920    0.3470 C   0  0  0  0  0  0  0  0  0  0  0  0
    1.7380   12.4030   -1.3940 C   0  0  2  0  0  0  0  0  0  0  0  0
    2.8410   13.2220   -0.7020 C   0  0  0  0  0  0  0  0  0  0  0  0
    2.5820   14.6900   -0.6070 C   0  0  0  0  0  0  0  0  0  0  0  0
    1.6500   15.3660   -1.3040 C   0  0  0  0  0  0  0  0  0  0  0  0
    0.8020   14.6630   -2.3720 C   0  0  1  0  0  0  0  0  0  0  0  0
   -2.0620    9.1020   -0.4940 C   0  0  2  0  0  0  0  0  0  0  0  0
    0.7600   15.5340   -3.6560 C   0  0  0  0  0  0  0  0  0  0  0  0
    0.2890   16.9580   -3.3810 C   0  0  0  0  0  0  0  0  0  0  0  0
    1.1920   17.6430   -2.3580 C   0  0  2  0  0  0  0  0  0  0  0  0
    1.3180   16.8520   -1.0260 C   0  0  0  0  0  0  0  0  0  0  0  0
   -0.0230   16.9150   -0.2540 C   0  0  0  0  0  0  0  0  0  0  0  0
    2.3650   17.5780   -0.1370 C   0  0  0  0  0  0  0  0  0  0  0  0
    1.1810   13.1490   -2.6740 C   0  0  1  0  0  0  0  0  0  0  0  0
    2.3070   13.0870   -3.7510 C   0  0  0  0  0  0  0  0  0  0  0  0
   -0.0680   12.4200   -3.2950 C   0  0  0  0  0  0  0  0  0  0  0  0
   -3.5570    9.4650   -0.3960 C   0  0  0  0  0  0  0  0  0  0  0  0
   -1.0660   11.7880   -2.3060 C   0  0  0  0  0  0  0  0  0  0  0  0
   -0.3400   10.9250   -1.2690 C   0  0  2  0  0  0  0  0  0  0  0  0
    0.3640    9.7520   -2.0330 C   0  0  0  0  0  0  0  0  0  0  0  0
   -4.4790    8.2480   -0.2780 C   0  0  0  0  0  0  0  0  0  0  0  0
   -5.1690    7.9490   -1.5750 C   0  0  2  0  0  0  0  0  0  0  0  0
   -6.5360    7.2950   -1.6640 C   0  0  0  0  0  0  0  0  0  0  0  0
   -7.2930    6.9000   -0.4350 C   0  0  0  0  0  0  0  0  0  0  0  0
   -6.9150    6.6000   -2.9340 C   0  0  0  0  0  0  0  0  0  0  0  0
    2.4880   17.8240   -2.9350 O   0  0  0  0  0  0  0  0  0  0  0  0
   -6.3590    8.7130   -1.8110 O   0  0  0  0  0  0  0  0  0  0  0  0
   -1.0375    7.7008   -1.7830 H   0  0  0  0  0  0  0  0  0  0  0  0
   -2.5964    8.3112   -2.4340 H   0  0  0  0  0  0  0  0  0  0  0  0
   -1.1464    9.3714   -2.4340 H   0  0  0  0  0  0  0  0  0  0  0  0
   -1.8714    8.2906    0.2238 H   0  0  0  0  0  0  0  0  0  0  0  0
   -3.7031   10.0988    0.4911 H   0  0  0  0  0  0  0  0  0  0  0  0
   -3.8244    9.9819   -1.3295 H   0  0  0  0  0  0  0  0  0  0  0  0
   -3.8800    7.3739    0.0172 H   0  0  0  0  0  0  0  0  0  0  0  0
   -5.2477    8.4712    0.4765 H   0  0  0  0  0  0  0  0  0  0  0  0
   -4.2085    7.7210   -2.0603 H   0  0  0  0  0  0  0  0  0  0  0  0
   -6.7234    7.1972    0.4579 H   0  0  0  0  0  0  0  0  0  0  0  0
   -8.2715    7.4025   -0.4297 H   0  0  0  0  0  0  0  0  0  0  0  0
   -7.4405    5.8100   -0.4297 H   0  0  0  0  0  0  0  0  0  0  0  0
   -7.4292    5.6570   -2.6966 H   0  0  0  0  0  0  0  0  0  0  0  0
   -7.5857    7.2461   -3.5195 H   0  0  0  0  0  0  0  0  0  0  0  0
   -6.0087    6.3861   -3.5195 H   0  0  0  0  0  0  0  0  0  0  0  0
   -2.0000   11.0215    0.1479 H   0  0  0  0  0  0  0  0  0  0  0  0
   -0.5666   10.2961    1.9528 H   0  0  0  0  0  0  0  0  0  0  0  0
    0.0692    8.9352    1.0043 H   0  0  0  0  0  0  0  0  0  0  0  0
    1.4518   11.3805    1.5337 H   0  0  0  0  0  0  0  0  0  0  0  0
    1.9339   10.2220    0.2974 H   0  0  0  0  0  0  0  0  0  0  0  0
    0.0307   12.8145    1.4270 H   0  0  0  0  0  0  0  0  0  0  0  0
    0.3806   13.9565    0.0854 H   0  0  0  0  0  0  0  0  0  0  0  0
   -1.1472   13.0118    0.0854 H   0  0  0  0  0  0  0  0  0  0  0  0
    2.2267   11.4833   -1.7481 H   0  0  0  0  0  0  0  0  0  0  0  0
    2.9639   12.8319    0.3191 H   0  0  0  0  0  0  0  0  0  0  0  0
    3.7393   13.1116   -1.3272 H   0  0  0  0  0  0  0  0  0  0  0  0
    3.2056   15.2673    0.0915 H   0  0  0  0  0  0  0  0  0  0  0  0
   -0.2088   14.5744   -1.9472 H   0  0  0  0  0  0  0  0  0  0  0  0
    1.7707   15.5741   -4.0882 H   0  0  0  0  0  0  0  0  0  0  0  0
    0.0415   15.0725   -4.3493 H   0  0  0  0  0  0  0  0  0  0  0  0
    0.3086   17.5313   -4.3196 H   0  0  0  0  0  0  0  0  0  0  0  0
   -0.7331   16.9179   -2.9763 H   0  0  0  0  0  0  0  0  0  0  0  0
    0.7315   18.6097   -2.1062 H   0  0  0  0  0  0  0  0  0  0  0  0
    3.0230   17.0450   -2.7070 H   0  0  0  0  0  0  0  0  0  0  0  0
    0.1759   16.9057    0.8278 H   0  0  0  0  0  0  0  0  0  0  0  0
   -0.5566   17.8392   -0.5207 H   0  0  0  0  0  0  0  0  0  0  0  0
   -0.6409   16.0449   -0.5207 H   0  0  0  0  0  0  0  0  0  0  0  0
    2.1244   17.4112    0.9233 H   0  0  0  0  0  0  0  0  0  0  0  0
    3.3677   17.1804   -0.3524 H   0  0  0  0  0  0  0  0  0  0  0  0
    2.3442   18.6565   -0.3524 H   0  0  0  0  0  0  0  0  0  0  0  0
    3.2870   13.0330   -3.2542 H   0  0  0  0  0  0  0  0  0  0  0  0
    2.1648   12.1953   -4.3792 H   0  0  0  0  0  0  0  0  0  0  0  0
    2.2635   13.9889   -4.3792 H   0  0  0  0  0  0  0  0  0  0  0  0
   -0.6184   13.1577   -3.8974 H   0  0  0  0  0  0  0  0  0  0  0  0
    0.3458   11.5755   -3.8656 H   0  0  0  0  0  0  0  0  0  0  0  0
   -1.6142   12.5884   -1.7875 H   0  0  0  0  0  0  0  0  0  0  0  0
   -1.7604   11.1479   -2.8701 H   0  0  0  0  0  0  0  0  0  0  0  0
    0.7890    9.0439   -1.3063 H   0  0  0  0  0  0  0  0  0  0  0  0
   -0.3715    9.2321   -2.6645 H   0  0  0  0  0  0  0  0  0  0  0  0
    1.1687   10.1565   -2.6645 H   0  0  0  0  0  0  0  0  0  0  0  0
  1 12  1  0  0  0  0
  1 33  1  0  0  0  0
  1 34  1  0  0  0  0
  1 35  1  0  0  0  0
  2  3  1  0  0  0  0
  2 48  1  0  0  0  0
  3  4  1  0  0  0  0
  3 49  1  0  0  0  0
  3 50  1  0  0  0  0
  4  5  1  0  0  0  0
  4 51  1  0  0  0  0
  4 52  1  0  0  0  0
  5  6  1  0  0  0  0
  5  7  1  0  0  0  0
  6 53  1  0  0  0  0
  6 54  1  0  0  0  0
  6 55  1  0  0  0  0
  7  8  1  0  0  0  0
  7 56  1  0  0  0  0
  8  9  1  0  0  0  0
  8 57  1  0  0  0  0
  8 58  1  0  0  0  0
  9 10  2  0  0  0  0
  9 59  1  0  0  0  0
 10 11  1  0  0  0  0
 11 13  1  0  0  0  0
 11 19  1  0  0  0  0
 11 60  1  0  0  0  0
  2 12  1  0  0  0  0
 12 22  1  0  0  0  0
 12 36  1  0  0  0  0
 13 14  1  0  0  0  0
 13 61  1  0  0  0  0
 13 62  1  0  0  0  0
 14 15  1  0  0  0  0
 14 63  1  0  0  0  0
 14 64  1  0  0  0  0
 15 16  1  0  0  0  0
 15 31  1  0  0  0  0
 15 65  1  0  0  0  0
 10 16  1  0  0  0  0
 16 17  1  0  0  0  0
 16 18  1  0  0  0  0
 17 67  1  0  0  0  0
 17 68  1  0  0  0  0
 17 69  1  0  0  0  0
 18 70  1  0  0  0  0
 18 71  1  0  0  0  0
 18 72  1  0  0  0  0
  7 19  1  0  0  0  0
 19 20  1  0  0  0  0
 19 21  1  0  0  0  0
 20 73  1  0  0  0  0
 20 74  1  0  0  0  0
 20 75  1  0  0  0  0
 21 23  1  0  0  0  0
 21 76  1  0  0  0  0
 21 77  1  0  0  0  0
 22 26  1  0  0  0  0
 22 37  1  0  0  0  0
 22 38  1  0  0  0  0
 23 24  1  0  0  0  0
 23 78  1  0  0  0  0
 23 79  1  0  0  0  0
  2 24  1  0  0  0  0
  5 24  1  0  0  0  0
 24 25  1  0  0  0  0
 25 80  1  0  0  0  0
 25 81  1  0  0  0  0
 25 82  1  0  0  0  0
 26 27  1  0  0  0  0
 26 39  1  0  0  0  0
 26 40  1  0  0  0  0
 27 32  1  0  0  0  0
 27 41  1  0  0  0  0
 27 28  1  0  0  0  0
 28 29  1  0  0  0  0
 28 30  1  0  0  0  0
 29 42  1  0  0  0  0
 29 43  1  0  0  0  0
 29 44  1  0  0  0  0
 30 45  1  0  0  0  0
 30 46  1  0  0  0  0
 30 47  1  0  0  0  0
 31 66  1  0  0  0  0
 28 32  1  0  0  0  0
M  END
$$$$
