EPH_relaxed_0001_pdb2pqr_Repair_32_r2_0001_out
  PyMOL3.1          3D                             0

 82 86  0  0  1  0  0  0  0  0999 V2000
   -1.7130    8.5750   -1.8650 C   0  0  0  0  0  0  0  0  0  0  0  0
   -1.2450   10.3140   -0.1290 C   0  0  1  0  0  0  0  0  0  0  0  0
   -0.2220   10.0120    0.9990 C   0  0  0  0  0  0  0  0  0  0  0  0
    1.0510   10.8390    0.6810 C   0  0  0  0  0  0  0  0  0  0  0  0
    0.6060   11.8320   -0.4190 C   0  0  1  0  0  0  0  0  0  0  0  0
   -0.1060   12.9890    0.3500 C   0  0  0  0  0  0  0  0  0  0  0  0
    1.7330   12.3720   -1.3590 C   0  0  2  0  0  0  0  0  0  0  0  0
    2.8310   13.1900   -0.6580 C   0  0  0  0  0  0  0  0  0  0  0  0
    2.5800   14.6600   -0.5810 C   0  0  0  0  0  0  0  0  0  0  0  0
    1.6630   15.3350   -1.2980 C   0  0  0  0  0  0  0  0  0  0  0  0
    0.8250   14.6280   -2.3710 C   0  0  1  0  0  0  0  0  0  0  0  0
   -2.1020    9.1040   -0.4820 C   0  0  2  0  0  0  0  0  0  0  0  0
    0.8080   15.4870   -3.6630 C   0  0  0  0  0  0  0  0  0  0  0  0
    0.3420   16.9170   -3.4090 C   0  0  0  0  0  0  0  0  0  0  0  0
    1.2340   17.6060   -2.3790 C   0  0  2  0  0  0  0  0  0  0  0  0
    1.3370   16.8270   -1.0380 C   0  0  0  0  0  0  0  0  0  0  0  0
   -0.0150   16.9050   -0.2860 C   0  0  0  0  0  0  0  0  0  0  0  0
    2.3750   17.5540   -0.1420 C   0  0  0  0  0  0  0  0  0  0  0  0
    1.1990   13.1090   -2.6530 C   0  0  1  0  0  0  0  0  0  0  0  0
    2.3390   13.0300   -3.7130 C   0  0  0  0  0  0  0  0  0  0  0  0
   -0.0470   12.3820   -3.2850 C   0  0  0  0  0  0  0  0  0  0  0  0
   -3.5960    9.4750   -0.4020 C   0  0  0  0  0  0  0  0  0  0  0  0
   -1.0630   11.7660   -2.3050 C   0  0  0  0  0  0  0  0  0  0  0  0
   -0.3570   10.9080   -1.2500 C   0  0  2  0  0  0  0  0  0  0  0  0
    0.3510    9.7230   -1.9920 C   0  0  0  0  0  0  0  0  0  0  0  0
   -4.5230    8.2670   -0.2390 C   0  0  0  0  0  0  0  0  0  0  0  0
   -5.2160    7.9240   -1.5230 C   0  0  2  0  0  0  0  0  0  0  0  0
   -6.6370    7.3950   -1.5900 C   0  0  0  0  0  0  0  0  0  0  0  0
   -7.4480    7.1770   -0.3520 C   0  0  0  0  0  0  0  0  0  0  0  0
   -7.0590    6.6330   -2.8080 C   0  0  0  0  0  0  0  0  0  0  0  0
    2.5400   17.7730   -2.9390 O   0  0  0  0  0  0  0  0  0  0  0  0
   -6.3240    8.7730   -1.8500 O   0  0  0  0  0  0  0  0  0  0  0  0
   -1.0648    7.6935   -1.7514 H   0  0  0  0  0  0  0  0  0  0  0  0
   -2.6209    8.2936   -2.4186 H   0  0  0  0  0  0  0  0  0  0  0  0
   -1.1738    9.3578   -2.4186 H   0  0  0  0  0  0  0  0  0  0  0  0
   -1.9230    8.2971    0.2439 H   0  0  0  0  0  0  0  0  0  0  0  0
   -3.7421   10.1434    0.4593 H   0  0  0  0  0  0  0  0  0  0  0  0
   -3.8592    9.9554   -1.3559 H   0  0  0  0  0  0  0  0  0  0  0  0
   -3.9272    7.4017    0.0870 H   0  0  0  0  0  0  0  0  0  0  0  0
   -5.2897    8.5209    0.5078 H   0  0  0  0  0  0  0  0  0  0  0  0
   -4.2739    7.5670   -1.9646 H   0  0  0  0  0  0  0  0  0  0  0  0
   -6.8179    7.3464    0.5336 H   0  0  0  0  0  0  0  0  0  0  0  0
   -8.2943    7.8795   -0.3397 H   0  0  0  0  0  0  0  0  0  0  0  0
   -7.8281    6.1448   -0.3397 H   0  0  0  0  0  0  0  0  0  0  0  0
   -7.5710    5.7085   -2.5030 H   0  0  0  0  0  0  0  0  0  0  0  0
   -7.7437    7.2505   -3.4079 H   0  0  0  0  0  0  0  0  0  0  0  0
   -6.1723    6.3803   -3.4079 H   0  0  0  0  0  0  0  0  0  0  0  0
   -2.0365   11.0284    0.1414 H   0  0  0  0  0  0  0  0  0  0  0  0
   -0.6341   10.3107    1.9742 H   0  0  0  0  0  0  0  0  0  0  0  0
    0.0069    8.9372    1.0475 H   0  0  0  0  0  0  0  0  0  0  0  0
    1.3968   11.3789    1.5748 H   0  0  0  0  0  0  0  0  0  0  0  0
    1.8900   10.2057    0.3569 H   0  0  0  0  0  0  0  0  0  0  0  0
   -0.0055   12.8257    1.4332 H   0  0  0  0  0  0  0  0  0  0  0  0
    0.3578   13.9490    0.0794 H   0  0  0  0  0  0  0  0  0  0  0  0
   -1.1720   13.0076    0.0794 H   0  0  0  0  0  0  0  0  0  0  0  0
    2.2216   11.4466   -1.6979 H   0  0  0  0  0  0  0  0  0  0  0  0
    2.9358   12.8088    0.3685 H   0  0  0  0  0  0  0  0  0  0  0  0
    3.7381   13.0676   -1.2681 H   0  0  0  0  0  0  0  0  0  0  0  0
    3.1968   15.2401    0.1212 H   0  0  0  0  0  0  0  0  0  0  0  0
   -0.1927   14.5502   -1.9607 H   0  0  0  0  0  0  0  0  0  0  0  0
    1.8254   15.5166   -4.0801 H   0  0  0  0  0  0  0  0  0  0  0  0
    0.0968   15.0235   -4.3626 H   0  0  0  0  0  0  0  0  0  0  0  0
    0.3796   17.4810   -4.3527 H   0  0  0  0  0  0  0  0  0  0  0  0
   -0.6864   16.8875   -3.0196 H   0  0  0  0  0  0  0  0  0  0  0  0
    0.7751   18.5774   -2.1428 H   0  0  0  0  0  0  0  0  0  0  0  0
    2.5790   17.2500   -3.7580 H   0  0  0  0  0  0  0  0  0  0  0  0
    0.1676   16.8945    0.7987 H   0  0  0  0  0  0  0  0  0  0  0  0
   -0.5346   17.8346   -0.5613 H   0  0  0  0  0  0  0  0  0  0  0  0
   -0.6381   16.0413   -0.5613 H   0  0  0  0  0  0  0  0  0  0  0  0
    2.1298   17.3823    0.9165 H   0  0  0  0  0  0  0  0  0  0  0  0
    3.3807   17.1618   -0.3537 H   0  0  0  0  0  0  0  0  0  0  0  0
    2.3502   18.6331   -0.3537 H   0  0  0  0  0  0  0  0  0  0  0  0
    3.3108   12.9627   -3.2020 H   0  0  0  0  0  0  0  0  0  0  0  0
    2.1933   12.1398   -4.3425 H   0  0  0  0  0  0  0  0  0  0  0  0
    2.3175   13.9318   -4.3425 H   0  0  0  0  0  0  0  0  0  0  0  0
   -0.5838   13.1177   -3.9020 H   0  0  0  0  0  0  0  0  0  0  0  0
    0.3692   11.5293   -3.8415 H   0  0  0  0  0  0  0  0  0  0  0  0
   -1.6132   12.5747   -1.8017 H   0  0  0  0  0  0  0  0  0  0  0  0
   -1.7538   11.1254   -2.8728 H   0  0  0  0  0  0  0  0  0  0  0  0
    0.7685    9.0242   -1.2521 H   0  0  0  0  0  0  0  0  0  0  0  0
   -0.3803    9.1959   -2.6223 H   0  0  0  0  0  0  0  0  0  0  0  0
    1.1617   10.1172   -2.6223 H   0  0  0  0  0  0  0  0  0  0  0  0
  1 12  1  0  0  0  0
  1 33  1  0  0  0  0
  1 34  1  0  0  0  0
  1 35  1  0  0  0  0
  2  3  1  0  0  0  0
  2 48  1  0  0  0  0
  3  4  1  0  0  0  0
  3 49  1  0  0  0  0
  3 50  1  0  0  0  0
  4  5  1  0  0  0  0
  4 51  1  0  0  0  0
  4 52  1  0  0  0  0
  5  6  1  0  0  0  0
  5  7  1  0  0  0  0
  6 53  1  0  0  0  0
  6 54  1  0  0  0  0
  6 55  1  0  0  0  0
  7  8  1  0  0  0  0
  7 56  1  0  0  0  0
  8  9  1  0  0  0  0
  8 57  1  0  0  0  0
  8 58  1  0  0  0  0
  9 10  2  0  0  0  0
  9 59  1  0  0  0  0
 10 11  1  0  0  0  0
 11 13  1  0  0  0  0
 11 19  1  0  0  0  0
 11 60  1  0  0  0  0
  2 12  1  0  0  0  0
 12 22  1  0  0  0  0
 12 36  1  0  0  0  0
 13 14  1  0  0  0  0
 13 61  1  0  0  0  0
 13 62  1  0  0  0  0
 14 15  1  0  0  0  0
 14 63  1  0  0  0  0
 14 64  1  0  0  0  0
 15 16  1  0  0  0  0
 15 31  1  0  0  0  0
 15 65  1  0  0  0  0
 10 16  1  0  0  0  0
 16 17  1  0  0  0  0
 16 18  1  0  0  0  0
 17 67  1  0  0  0  0
 17 68  1  0  0  0  0
 17 69  1  0  0  0  0
 18 70  1  0  0  0  0
 18 71  1  0  0  0  0
 18 72  1  0  0  0  0
  7 19  1  0  0  0  0
 19 20  1  0  0  0  0
 19 21  1  0  0  0  0
 20 73  1  0  0  0  0
 20 74  1  0  0  0  0
 20 75  1  0  0  0  0
 21 23  1  0  0  0  0
 21 76  1  0  0  0  0
 21 77  1  0  0  0  0
 22 26  1  0  0  0  0
 22 37  1  0  0  0  0
 22 38  1  0  0  0  0
 23 24  1  0  0  0  0
 23 78  1  0  0  0  0
 23 79  1  0  0  0  0
  2 24  1  0  0  0  0
  5 24  1  0  0  0  0
 24 25  1  0  0  0  0
 25 80  1  0  0  0  0
 25 81  1  0  0  0  0
 25 82  1  0  0  0  0
 26 27  1  0  0  0  0
 26 39  1  0  0  0  0
 26 40  1  0  0  0  0
 27 32  1  0  0  0  0
 27 41  1  0  0  0  0
 27 28  1  0  0  0  0
 28 29  1  0  0  0  0
 28 30  1  0  0  0  0
 29 42  1  0  0  0  0
 29 43  1  0  0  0  0
 29 44  1  0  0  0  0
 30 45  1  0  0  0  0
 30 46  1  0  0  0  0
 30 47  1  0  0  0  0
 31 66  1  0  0  0  0
 28 32  1  0  0  0  0
M  END
$$$$
