EPH_relaxed_0001_pdb2pqr_Repair_187_r2_0001_out
  PyMOL3.1          3D                             0

 82 86  0  0  1  0  0  0  0  0999 V2000
   -1.6560    8.6640   -1.8590 C   0  0  0  0  0  0  0  0  0  0  0  0
   -1.2410   10.4010   -0.1070 C   0  0  1  0  0  0  0  0  0  0  0  0
   -0.2490   10.1350    1.0570 C   0  0  0  0  0  0  0  0  0  0  0  0
    1.0170   10.9830    0.7690 C   0  0  0  0  0  0  0  0  0  0  0  0
    0.5880   11.9530   -0.3570 C   0  0  1  0  0  0  0  0  0  0  0  0
   -0.1720   13.1050    0.3730 C   0  0  0  0  0  0  0  0  0  0  0  0
    1.7330   12.5030   -1.2680 C   0  0  2  0  0  0  0  0  0  0  0  0
    2.7920   13.3530   -0.5430 C   0  0  0  0  0  0  0  0  0  0  0  0
    2.5090   14.8180   -0.4940 C   0  0  0  0  0  0  0  0  0  0  0  0
    1.6020   15.4650   -1.2490 C   0  0  0  0  0  0  0  0  0  0  0  0
    0.8140   14.7280   -2.3390 C   0  0  1  0  0  0  0  0  0  0  0  0
   -2.0610    9.1690   -0.4720 C   0  0  2  0  0  0  0  0  0  0  0  0
    0.8210   15.5690   -3.6420 C   0  0  0  0  0  0  0  0  0  0  0  0
    0.3190   16.9930   -3.4220 C   0  0  0  0  0  0  0  0  0  0  0  0
    1.1630   17.7130   -2.3730 C   0  0  2  0  0  0  0  0  0  0  0  0
    1.2380   16.9530   -1.0190 C   0  0  0  0  0  0  0  0  0  0  0  0
   -0.1390   17.0140   -0.3120 C   0  0  0  0  0  0  0  0  0  0  0  0
    2.2320   17.7130   -0.1000 C   0  0  0  0  0  0  0  0  0  0  0  0
    1.2270   13.2130   -2.5880 C   0  0  1  0  0  0  0  0  0  0  0  0
    2.4030   13.1440   -3.6100 C   0  0  0  0  0  0  0  0  0  0  0  0
    0.0180   12.4530   -3.2500 C   0  0  0  0  0  0  0  0  0  0  0  0
   -3.5660    9.4950   -0.3890 C   0  0  0  0  0  0  0  0  0  0  0  0
   -1.0170   11.8290   -2.2950 C   0  0  0  0  0  0  0  0  0  0  0  0
   -0.3290   10.9990   -1.2070 C   0  0  2  0  0  0  0  0  0  0  0  0
    0.4260    9.8200   -1.9100 C   0  0  0  0  0  0  0  0  0  0  0  0
   -4.4580    8.2580   -0.2620 C   0  0  0  0  0  0  0  0  0  0  0  0
   -5.1550    7.9420   -1.5510 C   0  0  2  0  0  0  0  0  0  0  0  0
   -6.5240    7.2920   -1.6240 C   0  0  0  0  0  0  0  0  0  0  0  0
   -7.2770    6.9180   -0.3860 C   0  0  0  0  0  0  0  0  0  0  0  0
   -6.9120    6.5800   -2.8830 C   0  0  0  0  0  0  0  0  0  0  0  0
    2.4830   17.9000   -2.8930 O   0  0  0  0  0  0  0  0  0  0  0  0
   -6.3430    8.7070   -1.7920 O   0  0  0  0  0  0  0  0  0  0  0  0
   -0.9710    7.8099   -1.7526 H   0  0  0  0  0  0  0  0  0  0  0  0
   -2.5536    8.3477   -2.4106 H   0  0  0  0  0  0  0  0  0  0  0  0
   -1.1523    9.4715   -2.4106 H   0  0  0  0  0  0  0  0  0  0  0  0
   -1.8579    8.3609    0.2461 H   0  0  0  0  0  0  0  0  0  0  0  0
   -3.7344   10.1361    0.4889 H   0  0  0  0  0  0  0  0  0  0  0  0
   -3.8393    9.9926   -1.3312 H   0  0  0  0  0  0  0  0  0  0  0  0
   -3.8359    7.3981    0.0269 H   0  0  0  0  0  0  0  0  0  0  0  0
   -5.2238    8.4644    0.5002 H   0  0  0  0  0  0  0  0  0  0  0  0
   -4.1978    7.7031   -2.0376 H   0  0  0  0  0  0  0  0  0  0  0  0
   -6.6931    7.2080    0.5000 H   0  0  0  0  0  0  0  0  0  0  0  0
   -8.2452    7.4399   -0.3740 H   0  0  0  0  0  0  0  0  0  0  0  0
   -7.4462    5.8312   -0.3740 H   0  0  0  0  0  0  0  0  0  0  0  0
   -7.4242    5.6401   -2.6297 H   0  0  0  0  0  0  0  0  0  0  0  0
   -7.5870    7.2182   -3.4720 H   0  0  0  0  0  0  0  0  0  0  0  0
   -6.0097    6.3587   -3.4720 H   0  0  0  0  0  0  0  0  0  0  0  0
   -2.0555   11.1017    0.1288 H   0  0  0  0  0  0  0  0  0  0  0  0
   -0.6982   10.4382    2.0142 H   0  0  0  0  0  0  0  0  0  0  0  0
   -0.0004    9.0658    1.1273 H   0  0  0  0  0  0  0  0  0  0  0  0
    1.3235   11.5406    1.6663 H   0  0  0  0  0  0  0  0  0  0  0  0
    1.8782   10.3626    0.4800 H   0  0  0  0  0  0  0  0  0  0  0  0
   -0.0835   12.9708    1.4612 H   0  0  0  0  0  0  0  0  0  0  0  0
    0.2657   14.0725    0.0861 H   0  0  0  0  0  0  0  0  0  0  0  0
   -1.2337   13.0833    0.0861 H   0  0  0  0  0  0  0  0  0  0  0  0
    2.2495   11.5829   -1.5789 H   0  0  0  0  0  0  0  0  0  0  0  0
    2.8715   12.9873    0.4914 H   0  0  0  0  0  0  0  0  0  0  0  0
    3.7205   13.2415   -1.1221 H   0  0  0  0  0  0  0  0  0  0  0  0
    3.0911   15.4196    0.2196 H   0  0  0  0  0  0  0  0  0  0  0  0
   -0.2148   14.6355   -1.9607 H   0  0  0  0  0  0  0  0  0  0  0  0
    1.8503   15.6136   -4.0274 H   0  0  0  0  0  0  0  0  0  0  0  0
    0.1416   15.0822   -4.3572 H   0  0  0  0  0  0  0  0  0  0  0  0
    0.3763   17.5456   -4.3714 H   0  0  0  0  0  0  0  0  0  0  0  0
   -0.7206   16.9477   -3.0655 H   0  0  0  0  0  0  0  0  0  0  0  0
    0.6772   18.6776   -2.1644 H   0  0  0  0  0  0  0  0  0  0  0  0
    2.4250   17.8670   -3.8630 H   0  0  0  0  0  0  0  0  0  0  0  0
    0.0079   17.0075    0.7781 H   0  0  0  0  0  0  0  0  0  0  0  0
   -0.6616   17.9362   -0.6060 H   0  0  0  0  0  0  0  0  0  0  0  0
   -0.7411   16.1416   -0.6060 H   0  0  0  0  0  0  0  0  0  0  0  0
    1.9791   17.5196    0.9529 H   0  0  0  0  0  0  0  0  0  0  0  0
    3.2561   17.3655   -0.3009 H   0  0  0  0  0  0  0  0  0  0  0  0
    2.1651   18.7924   -0.3009 H   0  0  0  0  0  0  0  0  0  0  0  0
    3.3579   13.0880   -3.0669 H   0  0  0  0  0  0  0  0  0  0  0  0
    2.2877   12.2511   -4.2420 H   0  0  0  0  0  0  0  0  0  0  0  0
    2.3929   14.0443   -4.2420 H   0  0  0  0  0  0  0  0  0  0  0  0
   -0.5130   13.1695   -3.8940 H   0  0  0  0  0  0  0  0  0  0  0  0
    0.4692   11.6020   -3.7812 H   0  0  0  0  0  0  0  0  0  0  0  0
   -1.5990   12.6327   -1.8203 H   0  0  0  0  0  0  0  0  0  0  0  0
   -1.6763   11.1676   -2.8762 H   0  0  0  0  0  0  0  0  0  0  0  0
    0.8537    9.1521   -1.1477 H   0  0  0  0  0  0  0  0  0  0  0  0
   -0.2791    9.2557   -2.5379 H   0  0  0  0  0  0  0  0  0  0  0  0
    1.2336   10.2244   -2.5379 H   0  0  0  0  0  0  0  0  0  0  0  0
  1 12  1  0  0  0  0
  1 33  1  0  0  0  0
  1 34  1  0  0  0  0
  1 35  1  0  0  0  0
  2  3  1  0  0  0  0
  2 48  1  0  0  0  0
  3  4  1  0  0  0  0
  3 49  1  0  0  0  0
  3 50  1  0  0  0  0
  4  5  1  0  0  0  0
  4 51  1  0  0  0  0
  4 52  1  0  0  0  0
  5  6  1  0  0  0  0
  5  7  1  0  0  0  0
  6 53  1  0  0  0  0
  6 54  1  0  0  0  0
  6 55  1  0  0  0  0
  7  8  1  0  0  0  0
  7 56  1  0  0  0  0
  8  9  1  0  0  0  0
  8 57  1  0  0  0  0
  8 58  1  0  0  0  0
  9 10  2  0  0  0  0
  9 59  1  0  0  0  0
 10 11  1  0  0  0  0
 11 13  1  0  0  0  0
 11 19  1  0  0  0  0
 11 60  1  0  0  0  0
  2 12  1  0  0  0  0
 12 22  1  0  0  0  0
 12 36  1  0  0  0  0
 13 14  1  0  0  0  0
 13 61  1  0  0  0  0
 13 62  1  0  0  0  0
 14 15  1  0  0  0  0
 14 63  1  0  0  0  0
 14 64  1  0  0  0  0
 15 16  1  0  0  0  0
 15 31  1  0  0  0  0
 15 65  1  0  0  0  0
 10 16  1  0  0  0  0
 16 17  1  0  0  0  0
 16 18  1  0  0  0  0
 17 67  1  0  0  0  0
 17 68  1  0  0  0  0
 17 69  1  0  0  0  0
 18 70  1  0  0  0  0
 18 71  1  0  0  0  0
 18 72  1  0  0  0  0
  7 19  1  0  0  0  0
 19 20  1  0  0  0  0
 19 21  1  0  0  0  0
 20 73  1  0  0  0  0
 20 74  1  0  0  0  0
 20 75  1  0  0  0  0
 21 23  1  0  0  0  0
 21 76  1  0  0  0  0
 21 77  1  0  0  0  0
 22 26  1  0  0  0  0
 22 37  1  0  0  0  0
 22 38  1  0  0  0  0
 23 24  1  0  0  0  0
 23 78  1  0  0  0  0
 23 79  1  0  0  0  0
  2 24  1  0  0  0  0
  5 24  1  0  0  0  0
 24 25  1  0  0  0  0
 25 80  1  0  0  0  0
 25 81  1  0  0  0  0
 25 82  1  0  0  0  0
 26 27  1  0  0  0  0
 26 39  1  0  0  0  0
 26 40  1  0  0  0  0
 27 32  1  0  0  0  0
 27 41  1  0  0  0  0
 27 28  1  0  0  0  0
 28 29  1  0  0  0  0
 28 30  1  0  0  0  0
 29 42  1  0  0  0  0
 29 43  1  0  0  0  0
 29 44  1  0  0  0  0
 30 45  1  0  0  0  0
 30 46  1  0  0  0  0
 30 47  1  0  0  0  0
 31 66  1  0  0  0  0
 28 32  1  0  0  0  0
M  END
$$$$
