EPH_relaxed_0001_pdb2pqr_Repair_405_r2_0001_out
  PyMOL3.1          3D                             0

 82 86  0  0  1  0  0  0  0  0999 V2000
   -1.7100    8.5750   -1.8590 C   0  0  0  0  0  0  0  0  0  0  0  0
   -1.2400   10.3080   -0.1180 C   0  0  1  0  0  0  0  0  0  0  0  0
   -0.2210   10.0070    1.0140 C   0  0  0  0  0  0  0  0  0  0  0  0
    1.0530   10.8310    0.7000 C   0  0  0  0  0  0  0  0  0  0  0  0
    0.6140   11.8240   -0.4010 C   0  0  1  0  0  0  0  0  0  0  0  0
   -0.0990   12.9820    0.3640 C   0  0  0  0  0  0  0  0  0  0  0  0
    1.7450   12.3610   -1.3380 C   0  0  2  0  0  0  0  0  0  0  0  0
    2.8420   13.1790   -0.6340 C   0  0  0  0  0  0  0  0  0  0  0  0
    2.5920   14.6490   -0.5590 C   0  0  0  0  0  0  0  0  0  0  0  0
    1.6780   15.3250   -1.2800 C   0  0  0  0  0  0  0  0  0  0  0  0
    0.8440   14.6180   -2.3560 C   0  0  1  0  0  0  0  0  0  0  0  0
   -2.0970    9.0990   -0.4730 C   0  0  2  0  0  0  0  0  0  0  0  0
    0.8330   15.4750   -3.6490 C   0  0  0  0  0  0  0  0  0  0  0  0
    0.3680   16.9070   -3.3970 C   0  0  0  0  0  0  0  0  0  0  0  0
    1.2570   17.5950   -2.3650 C   0  0  2  0  0  0  0  0  0  0  0  0
    1.3530   16.8170   -1.0230 C   0  0  0  0  0  0  0  0  0  0  0  0
   -0.0010   16.8980   -0.2760 C   0  0  0  0  0  0  0  0  0  0  0  0
    2.3890   17.5430   -0.1230 C   0  0  0  0  0  0  0  0  0  0  0  0
    1.2170   13.0980   -2.6350 C   0  0  1  0  0  0  0  0  0  0  0  0
    2.3620   13.0160   -3.6910 C   0  0  0  0  0  0  0  0  0  0  0  0
   -0.0270   12.3720   -3.2710 C   0  0  0  0  0  0  0  0  0  0  0  0
   -3.5910    9.4690   -0.3890 C   0  0  0  0  0  0  0  0  0  0  0  0
   -1.0470   11.7580   -2.2940 C   0  0  0  0  0  0  0  0  0  0  0  0
   -0.3460   10.9010   -1.2360 C   0  0  2  0  0  0  0  0  0  0  0  0
    0.3620    9.7140   -1.9740 C   0  0  0  0  0  0  0  0  0  0  0  0
   -4.5160    8.2610   -0.2200 C   0  0  0  0  0  0  0  0  0  0  0  0
   -5.2090    7.9100   -1.5020 C   0  0  2  0  0  0  0  0  0  0  0  0
   -6.6140    7.3400   -1.5650 C   0  0  0  0  0  0  0  0  0  0  0  0
   -7.4090    7.0870   -0.3230 C   0  0  0  0  0  0  0  0  0  0  0  0
   -7.0230    6.5780   -2.7870 C   0  0  0  0  0  0  0  0  0  0  0  0
    2.5660   17.7600   -2.9200 O   0  0  0  0  0  0  0  0  0  0  0  0
   -6.3440    8.7290   -1.8130 O   0  0  0  0  0  0  0  0  0  0  0  0
   -1.0597    7.6945   -1.7497 H   0  0  0  0  0  0  0  0  0  0  0  0
   -2.6186    8.2935   -2.4114 H   0  0  0  0  0  0  0  0  0  0  0  0
   -1.1737    9.3606   -2.4114 H   0  0  0  0  0  0  0  0  0  0  0  0
   -1.9166    8.2898    0.2499 H   0  0  0  0  0  0  0  0  0  0  0  0
   -3.7348   10.1394    0.4711 H   0  0  0  0  0  0  0  0  0  0  0  0
   -3.8578    9.9469   -1.3432 H   0  0  0  0  0  0  0  0  0  0  0  0
   -3.9189    7.3982    0.1103 H   0  0  0  0  0  0  0  0  0  0  0  0
   -5.2831    8.5180    0.5254 H   0  0  0  0  0  0  0  0  0  0  0  0
   -4.2599    7.5850   -1.9533 H   0  0  0  0  0  0  0  0  0  0  0  0
   -6.7835    7.2861    0.5597 H   0  0  0  0  0  0  0  0  0  0  0  0
   -8.2864    7.7503   -0.3078 H   0  0  0  0  0  0  0  0  0  0  0  0
   -7.7416    6.0386   -0.3078 H   0  0  0  0  0  0  0  0  0  0  0  0
   -7.5235    5.6455   -2.4872 H   0  0  0  0  0  0  0  0  0  0  0  0
   -7.7144    7.1891   -3.3859 H   0  0  0  0  0  0  0  0  0  0  0  0
   -6.1316    6.3396   -3.3859 H   0  0  0  0  0  0  0  0  0  0  0  0
   -2.0329   11.0224    0.1483 H   0  0  0  0  0  0  0  0  0  0  0  0
   -0.6363   10.3078    1.9872 H   0  0  0  0  0  0  0  0  0  0  0  0
    0.0067    8.9320    1.0646 H   0  0  0  0  0  0  0  0  0  0  0  0
    1.3968   11.3705    1.5948 H   0  0  0  0  0  0  0  0  0  0  0  0
    1.8917   10.1960    0.3786 H   0  0  0  0  0  0  0  0  0  0  0  0
    0.0000   12.8211    1.4477 H   0  0  0  0  0  0  0  0  0  0  0  0
    0.3649   13.9415    0.0918 H   0  0  0  0  0  0  0  0  0  0  0  0
   -1.1646   12.9997    0.0918 H   0  0  0  0  0  0  0  0  0  0  0  0
    2.2327   11.4341   -1.6740 H   0  0  0  0  0  0  0  0  0  0  0  0
    2.9434   12.7986    0.3931 H   0  0  0  0  0  0  0  0  0  0  0  0
    3.7509   13.0554   -1.2412 H   0  0  0  0  0  0  0  0  0  0  0  0
    3.2068   15.2289    0.1451 H   0  0  0  0  0  0  0  0  0  0  0  0
   -0.1753   14.5424   -1.9495 H   0  0  0  0  0  0  0  0  0  0  0  0
    1.8519   15.5026   -4.0627 H   0  0  0  0  0  0  0  0  0  0  0  0
    0.1240   15.0119   -4.3510 H   0  0  0  0  0  0  0  0  0  0  0  0
    0.4095   17.4704   -4.3408 H   0  0  0  0  0  0  0  0  0  0  0  0
   -0.6616   16.8792   -3.0109 H   0  0  0  0  0  0  0  0  0  0  0  0
    0.7990   18.5676   -2.1317 H   0  0  0  0  0  0  0  0  0  0  0  0
    3.1250   17.0450   -2.5730 H   0  0  0  0  0  0  0  0  0  0  0  0
    0.1778   16.8873    0.8093 H   0  0  0  0  0  0  0  0  0  0  0  0
   -0.5177   17.8287   -0.5533 H   0  0  0  0  0  0  0  0  0  0  0  0
   -0.6249   16.0356   -0.5533 H   0  0  0  0  0  0  0  0  0  0  0  0
    2.1413   17.3694    0.9346 H   0  0  0  0  0  0  0  0  0  0  0  0
    3.3953   17.1514   -0.3330 H   0  0  0  0  0  0  0  0  0  0  0  0
    2.3644   18.6225   -0.3330 H   0  0  0  0  0  0  0  0  0  0  0  0
    3.3315   12.9466   -3.1760 H   0  0  0  0  0  0  0  0  0  0  0  0
    2.2168   12.1260   -4.3209 H   0  0  0  0  0  0  0  0  0  0  0  0
    2.3452   13.9177   -4.3209 H   0  0  0  0  0  0  0  0  0  0  0  0
   -0.5608   13.1077   -3.8905 H   0  0  0  0  0  0  0  0  0  0  0  0
    0.3903   11.5185   -3.8255 H   0  0  0  0  0  0  0  0  0  0  0  0
   -1.5983   12.5677   -1.7936 H   0  0  0  0  0  0  0  0  0  0  0  0
   -1.7363   11.1174   -2.8636 H   0  0  0  0  0  0  0  0  0  0  0  0
    0.7779    9.0167   -1.2319 H   0  0  0  0  0  0  0  0  0  0  0  0
   -0.3688    9.1859   -2.6041 H   0  0  0  0  0  0  0  0  0  0  0  0
    1.1739   10.1061   -2.6041 H   0  0  0  0  0  0  0  0  0  0  0  0
  1 12  1  0  0  0  0
  1 33  1  0  0  0  0
  1 34  1  0  0  0  0
  1 35  1  0  0  0  0
  2  3  1  0  0  0  0
  2 48  1  0  0  0  0
  3  4  1  0  0  0  0
  3 49  1  0  0  0  0
  3 50  1  0  0  0  0
  4  5  1  0  0  0  0
  4 51  1  0  0  0  0
  4 52  1  0  0  0  0
  5  6  1  0  0  0  0
  5  7  1  0  0  0  0
  6 53  1  0  0  0  0
  6 54  1  0  0  0  0
  6 55  1  0  0  0  0
  7  8  1  0  0  0  0
  7 56  1  0  0  0  0
  8  9  1  0  0  0  0
  8 57  1  0  0  0  0
  8 58  1  0  0  0  0
  9 10  2  0  0  0  0
  9 59  1  0  0  0  0
 10 11  1  0  0  0  0
 11 13  1  0  0  0  0
 11 19  1  0  0  0  0
 11 60  1  0  0  0  0
  2 12  1  0  0  0  0
 12 22  1  0  0  0  0
 12 36  1  0  0  0  0
 13 14  1  0  0  0  0
 13 61  1  0  0  0  0
 13 62  1  0  0  0  0
 14 15  1  0  0  0  0
 14 63  1  0  0  0  0
 14 64  1  0  0  0  0
 15 16  1  0  0  0  0
 15 31  1  0  0  0  0
 15 65  1  0  0  0  0
 10 16  1  0  0  0  0
 16 17  1  0  0  0  0
 16 18  1  0  0  0  0
 17 67  1  0  0  0  0
 17 68  1  0  0  0  0
 17 69  1  0  0  0  0
 18 70  1  0  0  0  0
 18 71  1  0  0  0  0
 18 72  1  0  0  0  0
  7 19  1  0  0  0  0
 19 20  1  0  0  0  0
 19 21  1  0  0  0  0
 20 73  1  0  0  0  0
 20 74  1  0  0  0  0
 20 75  1  0  0  0  0
 21 23  1  0  0  0  0
 21 76  1  0  0  0  0
 21 77  1  0  0  0  0
 22 26  1  0  0  0  0
 22 37  1  0  0  0  0
 22 38  1  0  0  0  0
 23 24  1  0  0  0  0
 23 78  1  0  0  0  0
 23 79  1  0  0  0  0
  2 24  1  0  0  0  0
  5 24  1  0  0  0  0
 24 25  1  0  0  0  0
 25 80  1  0  0  0  0
 25 81  1  0  0  0  0
 25 82  1  0  0  0  0
 26 27  1  0  0  0  0
 26 39  1  0  0  0  0
 26 40  1  0  0  0  0
 27 32  1  0  0  0  0
 27 41  1  0  0  0  0
 27 28  1  0  0  0  0
 28 29  1  0  0  0  0
 28 30  1  0  0  0  0
 29 42  1  0  0  0  0
 29 43  1  0  0  0  0
 29 44  1  0  0  0  0
 30 45  1  0  0  0  0
 30 46  1  0  0  0  0
 30 47  1  0  0  0  0
 31 66  1  0  0  0  0
 28 32  1  0  0  0  0
M  END
$$$$
