EPH_relaxed_0001_pdb2pqr_Repair_239_r2_0001_out
  PyMOL3.1          3D                             0

 82 86  0  0  1  0  0  0  0  0999 V2000
   -1.7180    8.5860   -1.8750 C   0  0  0  0  0  0  0  0  0  0  0  0
   -1.2400   10.3150   -0.1310 C   0  0  1  0  0  0  0  0  0  0  0  0
   -0.2170   10.0140    0.9970 C   0  0  0  0  0  0  0  0  0  0  0  0
    1.0550   10.8420    0.6790 C   0  0  0  0  0  0  0  0  0  0  0  0
    0.6100   11.8350   -0.4200 C   0  0  1  0  0  0  0  0  0  0  0  0
   -0.1030   12.9910    0.3490 C   0  0  0  0  0  0  0  0  0  0  0  0
    1.7360   12.3760   -1.3600 C   0  0  2  0  0  0  0  0  0  0  0  0
    2.8340   13.1950   -0.6590 C   0  0  0  0  0  0  0  0  0  0  0  0
    2.5810   14.6640   -0.5810 C   0  0  0  0  0  0  0  0  0  0  0  0
    1.6630   15.3390   -1.2980 C   0  0  0  0  0  0  0  0  0  0  0  0
    0.8270   14.6320   -2.3720 C   0  0  1  0  0  0  0  0  0  0  0  0
   -2.0960    9.1050   -0.4850 C   0  0  2  0  0  0  0  0  0  0  0  0
    0.8090   15.4910   -3.6630 C   0  0  0  0  0  0  0  0  0  0  0  0
    0.3420   16.9210   -3.4090 C   0  0  0  0  0  0  0  0  0  0  0  0
    1.2340   17.6100   -2.3790 C   0  0  2  0  0  0  0  0  0  0  0  0
    1.3370   16.8300   -1.0380 C   0  0  0  0  0  0  0  0  0  0  0  0
   -0.0150   16.9080   -0.2860 C   0  0  0  0  0  0  0  0  0  0  0  0
    2.3740   17.5580   -0.1410 C   0  0  0  0  0  0  0  0  0  0  0  0
    1.2020   13.1130   -2.6540 C   0  0  1  0  0  0  0  0  0  0  0  0
    2.3430   13.0350   -3.7140 C   0  0  0  0  0  0  0  0  0  0  0  0
   -0.0430   12.3850   -3.2860 C   0  0  0  0  0  0  0  0  0  0  0  0
   -3.5910    9.4700   -0.3880 C   0  0  0  0  0  0  0  0  0  0  0  0
   -1.0590   11.7680   -2.3060 C   0  0  0  0  0  0  0  0  0  0  0  0
   -0.3520   10.9110   -1.2520 C   0  0  2  0  0  0  0  0  0  0  0  0
    0.3560    9.7270   -1.9940 C   0  0  0  0  0  0  0  0  0  0  0  0
   -4.5120    8.2580   -0.2260 C   0  0  0  0  0  0  0  0  0  0  0  0
   -5.2140    7.9200   -1.5060 C   0  0  2  0  0  0  0  0  0  0  0  0
   -6.6180    7.3480   -1.5650 C   0  0  0  0  0  0  0  0  0  0  0  0
   -7.4040    7.0800   -0.3190 C   0  0  0  0  0  0  0  0  0  0  0  0
   -7.0350    6.5990   -2.7910 C   0  0  0  0  0  0  0  0  0  0  0  0
    2.5400   17.7780   -2.9390 O   0  0  0  0  0  0  0  0  0  0  0  0
   -6.3530    8.7400   -1.7990 O   0  0  0  0  0  0  0  0  0  0  0  0
   -1.0732    7.7007   -1.7730 H   0  0  0  0  0  0  0  0  0  0  0  0
   -2.6306    8.3135   -2.4253 H   0  0  0  0  0  0  0  0  0  0  0  0
   -1.1786    9.3710   -2.4253 H   0  0  0  0  0  0  0  0  0  0  0  0
   -1.9073    8.2937    0.2335 H   0  0  0  0  0  0  0  0  0  0  0  0
   -3.7313   10.1311    0.4799 H   0  0  0  0  0  0  0  0  0  0  0  0
   -3.8648    9.9569   -1.3356 H   0  0  0  0  0  0  0  0  0  0  0  0
   -3.9104    7.3929    0.0898 H   0  0  0  0  0  0  0  0  0  0  0  0
   -5.2739    8.5048    0.5280 H   0  0  0  0  0  0  0  0  0  0  0  0
   -4.2677    7.6020   -1.9680 H   0  0  0  0  0  0  0  0  0  0  0  0
   -6.7797    7.2929    0.5613 H   0  0  0  0  0  0  0  0  0  0  0  0
   -8.2947    7.7252   -0.3015 H   0  0  0  0  0  0  0  0  0  0  0  0
   -7.7150    6.0250   -0.3015 H   0  0  0  0  0  0  0  0  0  0  0  0
   -7.5506    5.6728   -2.4972 H   0  0  0  0  0  0  0  0  0  0  0  0
   -7.7152    7.2236   -3.3886 H   0  0  0  0  0  0  0  0  0  0  0  0
   -6.1458    6.3498   -3.3886 H   0  0  0  0  0  0  0  0  0  0  0  0
   -2.0325   11.0281    0.1399 H   0  0  0  0  0  0  0  0  0  0  0  0
   -0.6294   10.3124    1.9721 H   0  0  0  0  0  0  0  0  0  0  0  0
    0.0128    8.9394    1.0457 H   0  0  0  0  0  0  0  0  0  0  0  0
    1.4005   11.3817    1.5731 H   0  0  0  0  0  0  0  0  0  0  0  0
    1.8941   10.2092    0.3542 H   0  0  0  0  0  0  0  0  0  0  0  0
   -0.0023   12.8277    1.4321 H   0  0  0  0  0  0  0  0  0  0  0  0
    0.3598   13.9515    0.0784 H   0  0  0  0  0  0  0  0  0  0  0  0
   -1.1691   13.0085    0.0784 H   0  0  0  0  0  0  0  0  0  0  0  0
    2.2245   11.4506   -1.6990 H   0  0  0  0  0  0  0  0  0  0  0  0
    2.9401   12.8133    0.3672 H   0  0  0  0  0  0  0  0  0  0  0  0
    3.7409   13.0741   -1.2696 H   0  0  0  0  0  0  0  0  0  0  0  0
    3.1968   15.2442    0.1219 H   0  0  0  0  0  0  0  0  0  0  0  0
   -0.1909   14.5534   -1.9624 H   0  0  0  0  0  0  0  0  0  0  0  0
    1.8263   15.5214   -4.0803 H   0  0  0  0  0  0  0  0  0  0  0  0
    0.0977   15.0272   -4.3622 H   0  0  0  0  0  0  0  0  0  0  0  0
    0.3792   17.4851   -4.3526 H   0  0  0  0  0  0  0  0  0  0  0  0
   -0.6864   16.8912   -3.0198 H   0  0  0  0  0  0  0  0  0  0  0  0
    0.7751   18.5813   -2.1425 H   0  0  0  0  0  0  0  0  0  0  0  0
    2.7000   17.0330   -3.5420 H   0  0  0  0  0  0  0  0  0  0  0  0
    0.1676   16.8975    0.7987 H   0  0  0  0  0  0  0  0  0  0  0  0
   -0.5346   17.8376   -0.5613 H   0  0  0  0  0  0  0  0  0  0  0  0
   -0.6381   16.0443   -0.5613 H   0  0  0  0  0  0  0  0  0  0  0  0
    2.1285   17.3856    0.9173 H   0  0  0  0  0  0  0  0  0  0  0  0
    3.3802   17.1670   -0.3524 H   0  0  0  0  0  0  0  0  0  0  0  0
    2.3481   18.6372   -0.3524 H   0  0  0  0  0  0  0  0  0  0  0  0
    3.3146   12.9686   -3.2026 H   0  0  0  0  0  0  0  0  0  0  0  0
    2.1984   12.1446   -4.3436 H   0  0  0  0  0  0  0  0  0  0  0  0
    2.3209   13.9368   -4.3436 H   0  0  0  0  0  0  0  0  0  0  0  0
   -0.5803   13.1201   -3.9031 H   0  0  0  0  0  0  0  0  0  0  0  0
    0.3741   11.5326   -3.8422 H   0  0  0  0  0  0  0  0  0  0  0  0
   -1.6099   12.5761   -1.8025 H   0  0  0  0  0  0  0  0  0  0  0  0
   -1.7497   11.1272   -2.8737 H   0  0  0  0  0  0  0  0  0  0  0  0
    0.7738    9.0282   -1.2543 H   0  0  0  0  0  0  0  0  0  0  0  0
   -0.3752    9.1997   -2.6244 H   0  0  0  0  0  0  0  0  0  0  0  0
    1.1665   10.1216   -2.6244 H   0  0  0  0  0  0  0  0  0  0  0  0
  1 12  1  0  0  0  0
  1 33  1  0  0  0  0
  1 34  1  0  0  0  0
  1 35  1  0  0  0  0
  2  3  1  0  0  0  0
  2 48  1  0  0  0  0
  3  4  1  0  0  0  0
  3 49  1  0  0  0  0
  3 50  1  0  0  0  0
  4  5  1  0  0  0  0
  4 51  1  0  0  0  0
  4 52  1  0  0  0  0
  5  6  1  0  0  0  0
  5  7  1  0  0  0  0
  6 53  1  0  0  0  0
  6 54  1  0  0  0  0
  6 55  1  0  0  0  0
  7  8  1  0  0  0  0
  7 56  1  0  0  0  0
  8  9  1  0  0  0  0
  8 57  1  0  0  0  0
  8 58  1  0  0  0  0
  9 10  2  0  0  0  0
  9 59  1  0  0  0  0
 10 11  1  0  0  0  0
 11 13  1  0  0  0  0
 11 19  1  0  0  0  0
 11 60  1  0  0  0  0
  2 12  1  0  0  0  0
 12 22  1  0  0  0  0
 12 36  1  0  0  0  0
 13 14  1  0  0  0  0
 13 61  1  0  0  0  0
 13 62  1  0  0  0  0
 14 15  1  0  0  0  0
 14 63  1  0  0  0  0
 14 64  1  0  0  0  0
 15 16  1  0  0  0  0
 15 31  1  0  0  0  0
 15 65  1  0  0  0  0
 10 16  1  0  0  0  0
 16 17  1  0  0  0  0
 16 18  1  0  0  0  0
 17 67  1  0  0  0  0
 17 68  1  0  0  0  0
 17 69  1  0  0  0  0
 18 70  1  0  0  0  0
 18 71  1  0  0  0  0
 18 72  1  0  0  0  0
  7 19  1  0  0  0  0
 19 20  1  0  0  0  0
 19 21  1  0  0  0  0
 20 73  1  0  0  0  0
 20 74  1  0  0  0  0
 20 75  1  0  0  0  0
 21 23  1  0  0  0  0
 21 76  1  0  0  0  0
 21 77  1  0  0  0  0
 22 26  1  0  0  0  0
 22 37  1  0  0  0  0
 22 38  1  0  0  0  0
 23 24  1  0  0  0  0
 23 78  1  0  0  0  0
 23 79  1  0  0  0  0
  2 24  1  0  0  0  0
  5 24  1  0  0  0  0
 24 25  1  0  0  0  0
 25 80  1  0  0  0  0
 25 81  1  0  0  0  0
 25 82  1  0  0  0  0
 26 27  1  0  0  0  0
 26 39  1  0  0  0  0
 26 40  1  0  0  0  0
 27 32  1  0  0  0  0
 27 41  1  0  0  0  0
 27 28  1  0  0  0  0
 28 29  1  0  0  0  0
 28 30  1  0  0  0  0
 29 42  1  0  0  0  0
 29 43  1  0  0  0  0
 29 44  1  0  0  0  0
 30 45  1  0  0  0  0
 30 46  1  0  0  0  0
 30 47  1  0  0  0  0
 31 66  1  0  0  0  0
 28 32  1  0  0  0  0
M  END
$$$$
