EPH_relaxed_0001_pdb2pqr_Repair_391_r2_0001_out
  PyMOL3.1          3D                             0

 82 86  0  0  1  0  0  0  0  0999 V2000
   -1.5770    8.5660   -1.8120 C   0  0  0  0  0  0  0  0  0  0  0  0
   -1.1200   10.3540   -0.1230 C   0  0  1  0  0  0  0  0  0  0  0  0
   -0.0470   10.0400    0.9540 C   0  0  0  0  0  0  0  0  0  0  0  0
    1.2080   10.8760    0.5920 C   0  0  0  0  0  0  0  0  0  0  0  0
    0.7120   11.8830   -0.4720 C   0  0  1  0  0  0  0  0  0  0  0  0
    0.0310   13.0260    0.3440 C   0  0  0  0  0  0  0  0  0  0  0  0
    1.7940   12.4400   -1.4530 C   0  0  2  0  0  0  0  0  0  0  0  0
    2.9200   13.2530   -0.7900 C   0  0  0  0  0  0  0  0  0  0  0  0
    2.6680   14.7210   -0.6810 C   0  0  0  0  0  0  0  0  0  0  0  0
    1.7170   15.4020   -1.3470 C   0  0  0  0  0  0  0  0  0  0  0  0
    0.8350   14.7070   -2.3920 C   0  0  1  0  0  0  0  0  0  0  0  0
   -1.9870    9.1460   -0.4550 C   0  0  2  0  0  0  0  0  0  0  0  0
    0.7580   15.5840   -3.6700 C   0  0  0  0  0  0  0  0  0  0  0  0
    0.3000   17.0090   -3.3740 C   0  0  0  0  0  0  0  0  0  0  0  0
    1.2340   17.6870   -2.3750 C   0  0  2  0  0  0  0  0  0  0  0  0
    1.3980   16.8890   -1.0520 C   0  0  0  0  0  0  0  0  0  0  0  0
    0.0810   16.9520   -0.2400 C   0  0  0  0  0  0  0  0  0  0  0  0
    2.4730   17.6070   -0.1920 C   0  0  0  0  0  0  0  0  0  0  0  0
    1.2010   13.1940   -2.7120 C   0  0  1  0  0  0  0  0  0  0  0  0
    2.2940   13.1340   -3.8230 C   0  0  0  0  0  0  0  0  0  0  0  0
   -0.0690   12.4710   -3.2990 C   0  0  0  0  0  0  0  0  0  0  0  0
   -3.4770    9.5420   -0.4210 C   0  0  0  0  0  0  0  0  0  0  0  0
   -1.0380   11.8370   -2.2840 C   0  0  0  0  0  0  0  0  0  0  0  0
   -0.2840   10.9680   -1.2740 C   0  0  2  0  0  0  0  0  0  0  0  0
    0.3940    9.7960   -2.0630 C   0  0  0  0  0  0  0  0  0  0  0  0
   -4.4280    8.3480   -0.2990 C   0  0  0  0  0  0  0  0  0  0  0  0
   -5.0590    8.0060   -1.6160 C   0  0  2  0  0  0  0  0  0  0  0  0
   -6.3380    7.2000   -1.7460 C   0  0  0  0  0  0  0  0  0  0  0  0
   -7.0630    6.6870   -0.5420 C   0  0  0  0  0  0  0  0  0  0  0  0
   -6.6140    6.5010   -3.0400 C   0  0  0  0  0  0  0  0  0  0  0  0
    2.5140   17.8670   -2.9900 O   0  0  0  0  0  0  0  0  0  0  0  0
   -6.3250    8.6330   -1.8540 O   0  0  0  0  0  0  0  0  0  0  0  0
   -0.9485    7.6769   -1.6559 H   0  0  0  0  0  0  0  0  0  0  0  0
   -2.4774    8.2839   -2.3773 H   0  0  0  0  0  0  0  0  0  0  0  0
   -1.0106    9.3207   -2.3773 H   0  0  0  0  0  0  0  0  0  0  0  0
   -1.8356    8.3611    0.3007 H   0  0  0  0  0  0  0  0  0  0  0  0
   -3.6405   10.2058    0.4408 H   0  0  0  0  0  0  0  0  0  0  0  0
   -3.7008   10.0350   -1.3785 H   0  0  0  0  0  0  0  0  0  0  0  0
   -3.8621    7.4767    0.0623 H   0  0  0  0  0  0  0  0  0  0  0  0
   -5.2285    8.6172    0.4057 H   0  0  0  0  0  0  0  0  0  0  0  0
   -4.0714    7.9043   -2.0896 H   0  0  0  0  0  0  0  0  0  0  0  0
   -6.5594    7.0433    0.3687 H   0  0  0  0  0  0  0  0  0  0  0  0
   -8.1001    7.0534   -0.5547 H   0  0  0  0  0  0  0  0  0  0  0  0
   -7.0625    5.5871   -0.5547 H   0  0  0  0  0  0  0  0  0  0  0  0
   -7.0110    5.4956   -2.8362 H   0  0  0  0  0  0  0  0  0  0  0  0
   -7.3523    7.0766   -3.6175 H   0  0  0  0  0  0  0  0  0  0  0  0
   -5.6816    6.4169   -3.6175 H   0  0  0  0  0  0  0  0  0  0  0  0
   -1.9013   11.0612    0.1923 H   0  0  0  0  0  0  0  0  0  0  0  0
   -0.4164   10.3233    1.9506 H   0  0  0  0  0  0  0  0  0  0  0  0
    0.1872    8.9655    0.9768 H   0  0  0  0  0  0  0  0  0  0  0  0
    1.5916   11.4040    1.4775 H   0  0  0  0  0  0  0  0  0  0  0  0
    2.0335   10.2504    0.2217 H   0  0  0  0  0  0  0  0  0  0  0  0
    0.1485   12.8287    1.4198 H   0  0  0  0  0  0  0  0  0  0  0  0
    0.5038   13.9871    0.0937 H   0  0  0  0  0  0  0  0  0  0  0  0
   -1.0393   13.0677    0.0937 H   0  0  0  0  0  0  0  0  0  0  0  0
    2.2693   11.5207   -1.8259 H   0  0  0  0  0  0  0  0  0  0  0  0
    3.0719   12.8579    0.2253 H   0  0  0  0  0  0  0  0  0  0  0  0
    3.7992   13.1428   -1.4418 H   0  0  0  0  0  0  0  0  0  0  0  0
    3.3138   15.2938    0.0008 H   0  0  0  0  0  0  0  0  0  0  0  0
   -0.1632   14.6196   -1.9381 H   0  0  0  0  0  0  0  0  0  0  0  0
    1.7556   15.6228   -4.1318 H   0  0  0  0  0  0  0  0  0  0  0  0
    0.0178   15.1282   -4.3440 H   0  0  0  0  0  0  0  0  0  0  0  0
    0.2939   17.5867   -4.3101 H   0  0  0  0  0  0  0  0  0  0  0  0
   -0.7096   16.9696   -2.9391 H   0  0  0  0  0  0  0  0  0  0  0  0
    0.7835   18.6534   -2.1048 H   0  0  0  0  0  0  0  0  0  0  0  0
    2.3820   18.3980   -3.7940 H   0  0  0  0  0  0  0  0  0  0  0  0
    0.3124   16.9409    0.8353 H   0  0  0  0  0  0  0  0  0  0  0  0
   -0.4595   17.8770   -0.4893 H   0  0  0  0  0  0  0  0  0  0  0  0
   -0.5454   16.0828   -0.4893 H   0  0  0  0  0  0  0  0  0  0  0  0
    2.2492   17.4575    0.8746 H   0  0  0  0  0  0  0  0  0  0  0  0
    3.4646   17.1892   -0.4206 H   0  0  0  0  0  0  0  0  0  0  0  0
    2.4669   18.6830   -0.4206 H   0  0  0  0  0  0  0  0  0  0  0  0
    3.2886   13.0794   -3.3563 H   0  0  0  0  0  0  0  0  0  0  0  0
    2.1329   12.2433   -4.4481 H   0  0  0  0  0  0  0  0  0  0  0  0
    2.2314   14.0369   -4.4481 H   0  0  0  0  0  0  0  0  0  0  0  0
   -0.6352   13.2131   -3.8809 H   0  0  0  0  0  0  0  0  0  0  0  0
    0.3251   11.6283   -3.8860 H   0  0  0  0  0  0  0  0  0  0  0  0
   -1.5684   12.6362   -1.7455 H   0  0  0  0  0  0  0  0  0  0  0  0
   -1.7506   11.2013   -2.8300 H   0  0  0  0  0  0  0  0  0  0  0  0
    0.8141    9.0698   -1.3516 H   0  0  0  0  0  0  0  0  0  0  0  0
   -0.3555    9.2980   -2.6956 H   0  0  0  0  0  0  0  0  0  0  0  0
    1.1993   10.1975   -2.6956 H   0  0  0  0  0  0  0  0  0  0  0  0
  1 12  1  0  0  0  0
  1 33  1  0  0  0  0
  1 34  1  0  0  0  0
  1 35  1  0  0  0  0
  2  3  1  0  0  0  0
  2 48  1  0  0  0  0
  3  4  1  0  0  0  0
  3 49  1  0  0  0  0
  3 50  1  0  0  0  0
  4  5  1  0  0  0  0
  4 51  1  0  0  0  0
  4 52  1  0  0  0  0
  5  6  1  0  0  0  0
  5  7  1  0  0  0  0
  6 53  1  0  0  0  0
  6 54  1  0  0  0  0
  6 55  1  0  0  0  0
  7  8  1  0  0  0  0
  7 56  1  0  0  0  0
  8  9  1  0  0  0  0
  8 57  1  0  0  0  0
  8 58  1  0  0  0  0
  9 10  2  0  0  0  0
  9 59  1  0  0  0  0
 10 11  1  0  0  0  0
 11 13  1  0  0  0  0
 11 19  1  0  0  0  0
 11 60  1  0  0  0  0
  2 12  1  0  0  0  0
 12 22  1  0  0  0  0
 12 36  1  0  0  0  0
 13 14  1  0  0  0  0
 13 61  1  0  0  0  0
 13 62  1  0  0  0  0
 14 15  1  0  0  0  0
 14 63  1  0  0  0  0
 14 64  1  0  0  0  0
 15 16  1  0  0  0  0
 15 31  1  0  0  0  0
 15 65  1  0  0  0  0
 10 16  1  0  0  0  0
 16 17  1  0  0  0  0
 16 18  1  0  0  0  0
 17 67  1  0  0  0  0
 17 68  1  0  0  0  0
 17 69  1  0  0  0  0
 18 70  1  0  0  0  0
 18 71  1  0  0  0  0
 18 72  1  0  0  0  0
  7 19  1  0  0  0  0
 19 20  1  0  0  0  0
 19 21  1  0  0  0  0
 20 73  1  0  0  0  0
 20 74  1  0  0  0  0
 20 75  1  0  0  0  0
 21 23  1  0  0  0  0
 21 76  1  0  0  0  0
 21 77  1  0  0  0  0
 22 26  1  0  0  0  0
 22 37  1  0  0  0  0
 22 38  1  0  0  0  0
 23 24  1  0  0  0  0
 23 78  1  0  0  0  0
 23 79  1  0  0  0  0
  2 24  1  0  0  0  0
  5 24  1  0  0  0  0
 24 25  1  0  0  0  0
 25 80  1  0  0  0  0
 25 81  1  0  0  0  0
 25 82  1  0  0  0  0
 26 27  1  0  0  0  0
 26 39  1  0  0  0  0
 26 40  1  0  0  0  0
 27 32  1  0  0  0  0
 27 41  1  0  0  0  0
 27 28  1  0  0  0  0
 28 29  1  0  0  0  0
 28 30  1  0  0  0  0
 29 42  1  0  0  0  0
 29 43  1  0  0  0  0
 29 44  1  0  0  0  0
 30 45  1  0  0  0  0
 30 46  1  0  0  0  0
 30 47  1  0  0  0  0
 31 66  1  0  0  0  0
 28 32  1  0  0  0  0
M  END
$$$$
