EPH_relaxed_0001_pdb2pqr_Repair_270_r2_0001_out
  PyMOL3.1          3D                             0

 82 86  0  0  1  0  0  0  0  0999 V2000
   -1.5950    8.5620   -1.8130 C   0  0  0  0  0  0  0  0  0  0  0  0
   -1.1240   10.3500   -0.1280 C   0  0  1  0  0  0  0  0  0  0  0  0
   -0.0440   10.0270    0.9390 C   0  0  0  0  0  0  0  0  0  0  0  0
    1.2120   10.8570    0.5700 C   0  0  0  0  0  0  0  0  0  0  0  0
    0.7120   11.8710   -0.4860 C   0  0  1  0  0  0  0  0  0  0  0  0
    0.0440   13.0140    0.3390 C   0  0  0  0  0  0  0  0  0  0  0  0
    1.7890   12.4260   -1.4740 C   0  0  2  0  0  0  0  0  0  0  0  0
    2.9240   13.2310   -0.8180 C   0  0  0  0  0  0  0  0  0  0  0  0
    2.6810   14.6990   -0.7010 C   0  0  0  0  0  0  0  0  0  0  0  0
    1.7280   15.3880   -1.3560 C   0  0  0  0  0  0  0  0  0  0  0  0
    0.8340   14.7010   -2.3970 C   0  0  1  0  0  0  0  0  0  0  0  0
   -2.0010    9.1470   -0.4580 C   0  0  2  0  0  0  0  0  0  0  0  0
    0.7510   15.5830   -3.6710 C   0  0  0  0  0  0  0  0  0  0  0  0
    0.3030   17.0100   -3.3660 C   0  0  0  0  0  0  0  0  0  0  0  0
    1.2490   17.6780   -2.3730 C   0  0  2  0  0  0  0  0  0  0  0  0
    1.4200   16.8750   -1.0530 C   0  0  0  0  0  0  0  0  0  0  0  0
    0.1090   16.9410   -0.2300 C   0  0  0  0  0  0  0  0  0  0  0  0
    2.5050   17.5840   -0.1990 C   0  0  0  0  0  0  0  0  0  0  0  0
    1.1900   13.1880   -2.7250 C   0  0  1  0  0  0  0  0  0  0  0  0
    2.2730   13.1260   -3.8450 C   0  0  0  0  0  0  0  0  0  0  0  0
   -0.0880   12.4730   -3.3050 C   0  0  0  0  0  0  0  0  0  0  0  0
   -3.4880    9.5540   -0.4220 C   0  0  0  0  0  0  0  0  0  0  0  0
   -1.0530   11.8410   -2.2840 C   0  0  0  0  0  0  0  0  0  0  0  0
   -0.2950   10.9640   -1.2830 C   0  0  2  0  0  0  0  0  0  0  0  0
    0.3700    9.7910   -2.0820 C   0  0  0  0  0  0  0  0  0  0  0  0
   -4.4470    8.3690   -0.2790 C   0  0  0  0  0  0  0  0  0  0  0  0
   -5.0840    8.0100   -1.5870 C   0  0  2  0  0  0  0  0  0  0  0  0
   -6.3780    7.2260   -1.7000 C   0  0  0  0  0  0  0  0  0  0  0  0
   -7.1120    6.7520   -0.4850 C   0  0  0  0  0  0  0  0  0  0  0  0
   -6.6680    6.5040   -2.9790 C   0  0  0  0  0  0  0  0  0  0  0  0
    2.5240   17.8540   -2.9970 O   0  0  0  0  0  0  0  0  0  0  0  0
   -6.3390    8.6560   -1.8390 O   0  0  0  0  0  0  0  0  0  0  0  0
   -0.9743    7.6677   -1.6551 H   0  0  0  0  0  0  0  0  0  0  0  0
   -2.4973    8.2869   -2.3788 H   0  0  0  0  0  0  0  0  0  0  0  0
   -1.0216    9.3111   -2.3788 H   0  0  0  0  0  0  0  0  0  0  0  0
   -1.8559    8.3614    0.2981 H   0  0  0  0  0  0  0  0  0  0  0  0
   -3.6423   10.2306    0.4314 H   0  0  0  0  0  0  0  0  0  0  0  0
   -3.7130   10.0353   -1.3852 H   0  0  0  0  0  0  0  0  0  0  0  0
   -3.8861    7.4997    0.0948 H   0  0  0  0  0  0  0  0  0  0  0  0
   -5.2438    8.6558    0.4230 H   0  0  0  0  0  0  0  0  0  0  0  0
   -4.0986    7.8789   -2.0579 H   0  0  0  0  0  0  0  0  0  0  0  0
   -6.5845    7.0926    0.4182 H   0  0  0  0  0  0  0  0  0  0  0  0
   -8.1327    7.1620   -0.4901 H   0  0  0  0  0  0  0  0  0  0  0  0
   -7.1583    5.6530   -0.4901 H   0  0  0  0  0  0  0  0  0  0  0  0
   -7.0693    5.5050   -2.7533 H   0  0  0  0  0  0  0  0  0  0  0  0
   -7.4073    7.0730   -3.5618 H   0  0  0  0  0  0  0  0  0  0  0  0
   -5.7405    6.4035   -3.5618 H   0  0  0  0  0  0  0  0  0  0  0  0
   -1.8992   11.0597    0.1967 H   0  0  0  0  0  0  0  0  0  0  0  0
   -0.4038   10.3090    1.9395 H   0  0  0  0  0  0  0  0  0  0  0  0
    0.1847    8.9512    0.9561 H   0  0  0  0  0  0  0  0  0  0  0  0
    1.6060   11.3794    1.4542 H   0  0  0  0  0  0  0  0  0  0  0  0
    2.0311   10.2285    0.1904 H   0  0  0  0  0  0  0  0  0  0  0  0
    0.1637   12.8091    1.4131 H   0  0  0  0  0  0  0  0  0  0  0  0
    0.5240   13.9726    0.0928 H   0  0  0  0  0  0  0  0  0  0  0  0
   -1.0268   13.0663    0.0928 H   0  0  0  0  0  0  0  0  0  0  0  0
    2.2561   11.5053   -1.8536 H   0  0  0  0  0  0  0  0  0  0  0  0
    3.0827   12.8313    0.1944 H   0  0  0  0  0  0  0  0  0  0  0  0
    3.7966   13.1193   -1.4784 H   0  0  0  0  0  0  0  0  0  0  0  0
    3.3357   15.2655   -0.0225 H   0  0  0  0  0  0  0  0  0  0  0  0
   -0.1611   14.6169   -1.9358 H   0  0  0  0  0  0  0  0  0  0  0  0
    1.7449   15.6182   -4.1410 H   0  0  0  0  0  0  0  0  0  0  0  0
    0.0027   15.1337   -4.3404 H   0  0  0  0  0  0  0  0  0  0  0  0
    0.2922   17.5913   -4.2998 H   0  0  0  0  0  0  0  0  0  0  0  0
   -0.7033   16.9750   -2.9231 H   0  0  0  0  0  0  0  0  0  0  0  0
    0.8053   18.6457   -2.0960 H   0  0  0  0  0  0  0  0  0  0  0  0
    2.9840   18.5730   -2.5300 H   0  0  0  0  0  0  0  0  0  0  0  0
    0.3489   16.9289    0.8434 H   0  0  0  0  0  0  0  0  0  0  0  0
   -0.4312   17.8675   -0.4746 H   0  0  0  0  0  0  0  0  0  0  0  0
   -0.5215   16.0735   -0.4746 H   0  0  0  0  0  0  0  0  0  0  0  0
    2.2836   17.4394    0.8687 H   0  0  0  0  0  0  0  0  0  0  0  0
    3.4914   17.1557   -0.4303 H   0  0  0  0  0  0  0  0  0  0  0  0
    2.5088   18.6594   -0.4303 H   0  0  0  0  0  0  0  0  0  0  0  0
    3.2714   13.0688   -3.3869 H   0  0  0  0  0  0  0  0  0  0  0  0
    2.1045   12.2360   -4.4691 H   0  0  0  0  0  0  0  0  0  0  0  0
    2.2071   14.0294   -4.4691 H   0  0  0  0  0  0  0  0  0  0  0  0
   -0.6547   13.2196   -3.8808 H   0  0  0  0  0  0  0  0  0  0  0  0
    0.2973   11.6300   -3.8973 H   0  0  0  0  0  0  0  0  0  0  0  0
   -1.5744   12.6414   -1.7385 H   0  0  0  0  0  0  0  0  0  0  0  0
   -1.7740   11.2115   -2.8261 H   0  0  0  0  0  0  0  0  0  0  0  0
    0.7863    9.0567   -1.3767 H   0  0  0  0  0  0  0  0  0  0  0  0
   -0.3861    9.3036   -2.7150 H   0  0  0  0  0  0  0  0  0  0  0  0
    1.1765   10.1895   -2.7150 H   0  0  0  0  0  0  0  0  0  0  0  0
  1 12  1  0  0  0  0
  1 33  1  0  0  0  0
  1 34  1  0  0  0  0
  1 35  1  0  0  0  0
  2  3  1  0  0  0  0
  2 48  1  0  0  0  0
  3  4  1  0  0  0  0
  3 49  1  0  0  0  0
  3 50  1  0  0  0  0
  4  5  1  0  0  0  0
  4 51  1  0  0  0  0
  4 52  1  0  0  0  0
  5  6  1  0  0  0  0
  5  7  1  0  0  0  0
  6 53  1  0  0  0  0
  6 54  1  0  0  0  0
  6 55  1  0  0  0  0
  7  8  1  0  0  0  0
  7 56  1  0  0  0  0
  8  9  1  0  0  0  0
  8 57  1  0  0  0  0
  8 58  1  0  0  0  0
  9 10  2  0  0  0  0
  9 59  1  0  0  0  0
 10 11  1  0  0  0  0
 11 13  1  0  0  0  0
 11 19  1  0  0  0  0
 11 60  1  0  0  0  0
  2 12  1  0  0  0  0
 12 22  1  0  0  0  0
 12 36  1  0  0  0  0
 13 14  1  0  0  0  0
 13 61  1  0  0  0  0
 13 62  1  0  0  0  0
 14 15  1  0  0  0  0
 14 63  1  0  0  0  0
 14 64  1  0  0  0  0
 15 16  1  0  0  0  0
 15 31  1  0  0  0  0
 15 65  1  0  0  0  0
 10 16  1  0  0  0  0
 16 17  1  0  0  0  0
 16 18  1  0  0  0  0
 17 67  1  0  0  0  0
 17 68  1  0  0  0  0
 17 69  1  0  0  0  0
 18 70  1  0  0  0  0
 18 71  1  0  0  0  0
 18 72  1  0  0  0  0
  7 19  1  0  0  0  0
 19 20  1  0  0  0  0
 19 21  1  0  0  0  0
 20 73  1  0  0  0  0
 20 74  1  0  0  0  0
 20 75  1  0  0  0  0
 21 23  1  0  0  0  0
 21 76  1  0  0  0  0
 21 77  1  0  0  0  0
 22 26  1  0  0  0  0
 22 37  1  0  0  0  0
 22 38  1  0  0  0  0
 23 24  1  0  0  0  0
 23 78  1  0  0  0  0
 23 79  1  0  0  0  0
  2 24  1  0  0  0  0
  5 24  1  0  0  0  0
 24 25  1  0  0  0  0
 25 80  1  0  0  0  0
 25 81  1  0  0  0  0
 25 82  1  0  0  0  0
 26 27  1  0  0  0  0
 26 39  1  0  0  0  0
 26 40  1  0  0  0  0
 27 32  1  0  0  0  0
 27 41  1  0  0  0  0
 27 28  1  0  0  0  0
 28 29  1  0  0  0  0
 28 30  1  0  0  0  0
 29 42  1  0  0  0  0
 29 43  1  0  0  0  0
 29 44  1  0  0  0  0
 30 45  1  0  0  0  0
 30 46  1  0  0  0  0
 30 47  1  0  0  0  0
 31 66  1  0  0  0  0
 28 32  1  0  0  0  0
M  END
$$$$
