EPH_relaxed_0001_pdb2pqr_Repair_173_r2_0001_out
  PyMOL3.1          3D                             0

 82 86  0  0  1  0  0  0  0  0999 V2000
   -1.6470    8.6080   -1.9200 C   0  0  0  0  0  0  0  0  0  0  0  0
   -1.1860   10.3370   -0.1720 C   0  0  1  0  0  0  0  0  0  0  0  0
   -0.1490   10.0270    0.9410 C   0  0  0  0  0  0  0  0  0  0  0  0
    1.1140   10.8660    0.6220 C   0  0  0  0  0  0  0  0  0  0  0  0
    0.6520   11.8710   -0.4590 C   0  0  1  0  0  0  0  0  0  0  0  0
   -0.0590   13.0130    0.3330 C   0  0  0  0  0  0  0  0  0  0  0  0
    1.7660   12.4310   -1.4030 C   0  0  2  0  0  0  0  0  0  0  0  0
    2.8660   13.2470   -0.7020 C   0  0  0  0  0  0  0  0  0  0  0  0
    2.6060   14.7140   -0.6020 C   0  0  0  0  0  0  0  0  0  0  0  0
    1.6770   15.3930   -1.3000 C   0  0  0  0  0  0  0  0  0  0  0  0
    0.8330   14.6950   -2.3750 C   0  0  1  0  0  0  0  0  0  0  0  0
   -2.0380    9.1260   -0.5330 C   0  0  2  0  0  0  0  0  0  0  0  0
    0.7970   15.5710   -3.6550 C   0  0  0  0  0  0  0  0  0  0  0  0
    0.3250   16.9950   -3.3760 C   0  0  0  0  0  0  0  0  0  0  0  0
    1.2230   17.6760   -2.3460 C   0  0  2  0  0  0  0  0  0  0  0  0
    1.3440   16.8790   -1.0170 C   0  0  0  0  0  0  0  0  0  0  0  0
   -0.0000   16.9380   -0.2500 C   0  0  0  0  0  0  0  0  0  0  0  0
    2.3870   17.6000   -0.1210 C   0  0  0  0  0  0  0  0  0  0  0  0
    1.2140   13.1830   -2.6810 C   0  0  1  0  0  0  0  0  0  0  0  0
    2.3440   13.1260   -3.7540 C   0  0  0  0  0  0  0  0  0  0  0  0
   -0.0330   12.4560   -3.3110 C   0  0  0  0  0  0  0  0  0  0  0  0
   -3.5340    9.4920   -0.4510 C   0  0  0  0  0  0  0  0  0  0  0  0
   -1.0350   11.8200   -2.3290 C   0  0  0  0  0  0  0  0  0  0  0  0
   -0.3130   10.9530   -1.2940 C   0  0  2  0  0  0  0  0  0  0  0  0
    0.3950    9.7830   -2.0590 C   0  0  0  0  0  0  0  0  0  0  0  0
   -4.4570    8.2790   -0.3040 C   0  0  0  0  0  0  0  0  0  0  0  0
   -5.1420    7.9430   -1.5940 C   0  0  2  0  0  0  0  0  0  0  0  0
   -6.4950    7.2610   -1.6690 C   0  0  0  0  0  0  0  0  0  0  0  0
   -7.2430    6.8720   -0.4330 C   0  0  0  0  0  0  0  0  0  0  0  0
   -6.8620    6.5370   -2.9270 C   0  0  0  0  0  0  0  0  0  0  0  0
    2.5220   17.8590   -2.9170 O   0  0  0  0  0  0  0  0  0  0  0  0
   -6.3470    8.6800   -1.8400 O   0  0  0  0  0  0  0  0  0  0  0  0
   -0.9875    7.7342   -1.8126 H   0  0  0  0  0  0  0  0  0  0  0  0
   -2.5532    8.3177   -2.4719 H   0  0  0  0  0  0  0  0  0  0  0  0
   -1.1195    9.3999   -2.4719 H   0  0  0  0  0  0  0  0  0  0  0  0
   -1.8560    8.3147    0.1872 H   0  0  0  0  0  0  0  0  0  0  0  0
   -3.6836   10.1496    0.4180 H   0  0  0  0  0  0  0  0  0  0  0  0
   -3.7973    9.9834   -1.3992 H   0  0  0  0  0  0  0  0  0  0  0  0
   -3.8594    7.4135    0.0181 H   0  0  0  0  0  0  0  0  0  0  0  0
   -5.2291    8.5243    0.4401 H   0  0  0  0  0  0  0  0  0  0  0  0
   -4.1783    7.7249   -2.0774 H   0  0  0  0  0  0  0  0  0  0  0  0
   -6.6662    7.1720    0.4543 H   0  0  0  0  0  0  0  0  0  0  0  0
   -8.2208    7.3759   -0.4223 H   0  0  0  0  0  0  0  0  0  0  0  0
   -7.3920    5.7822   -0.4223 H   0  0  0  0  0  0  0  0  0  0  0  0
   -7.3459    5.5824   -2.6728 H   0  0  0  0  0  0  0  0  0  0  0  0
   -7.5560    7.1544   -3.5162 H   0  0  0  0  0  0  0  0  0  0  0  0
   -5.9538    6.3422   -3.5162 H   0  0  0  0  0  0  0  0  0  0  0  0
   -1.9800   11.0416    0.1163 H   0  0  0  0  0  0  0  0  0  0  0  0
   -0.5530   10.3096    1.9244 H   0  0  0  0  0  0  0  0  0  0  0  0
    0.0878    8.9532    0.9720 H   0  0  0  0  0  0  0  0  0  0  0  0
    1.4653   11.3956    1.5198 H   0  0  0  0  0  0  0  0  0  0  0  0
    1.9536   10.2427    0.2805 H   0  0  0  0  0  0  0  0  0  0  0  0
    0.0521   12.8346    1.4127 H   0  0  0  0  0  0  0  0  0  0  0  0
    0.3974   13.9793    0.0722 H   0  0  0  0  0  0  0  0  0  0  0  0
   -1.1275   13.0299    0.0722 H   0  0  0  0  0  0  0  0  0  0  0  0
    2.2567   11.5133   -1.7595 H   0  0  0  0  0  0  0  0  0  0  0  0
    2.9841   12.8524    0.3180 H   0  0  0  0  0  0  0  0  0  0  0  0
    3.7674   13.1393   -1.3231 H   0  0  0  0  0  0  0  0  0  0  0  0
    3.2263   15.2884    0.1018 H   0  0  0  0  0  0  0  0  0  0  0  0
   -0.1801   14.6052   -1.9559 H   0  0  0  0  0  0  0  0  0  0  0  0
    1.8097   15.6125   -4.0825 H   0  0  0  0  0  0  0  0  0  0  0  0
    0.0813   15.1127   -4.3534 H   0  0  0  0  0  0  0  0  0  0  0  0
    0.3492   17.5721   -4.3121 H   0  0  0  0  0  0  0  0  0  0  0  0
   -0.6988   16.9533   -2.9760 H   0  0  0  0  0  0  0  0  0  0  0  0
    0.7610   18.6414   -2.0919 H   0  0  0  0  0  0  0  0  0  0  0  0
    2.5600   17.3360   -3.7350 H   0  0  0  0  0  0  0  0  0  0  0  0
    0.1949   16.9294    0.8326 H   0  0  0  0  0  0  0  0  0  0  0  0
   -0.5354   17.8605   -0.5189 H   0  0  0  0  0  0  0  0  0  0  0  0
   -0.6142   16.0660   -0.5189 H   0  0  0  0  0  0  0  0  0  0  0  0
    2.1410   17.4299    0.9376 H   0  0  0  0  0  0  0  0  0  0  0  0
    3.3902   17.2016   -0.3329 H   0  0  0  0  0  0  0  0  0  0  0  0
    2.3688   18.6792   -0.3329 H   0  0  0  0  0  0  0  0  0  0  0  0
    3.3224   13.0766   -3.2538 H   0  0  0  0  0  0  0  0  0  0  0  0
    2.2081   12.2336   -4.3826 H   0  0  0  0  0  0  0  0  0  0  0  0
    2.2986   14.0276   -4.3826 H   0  0  0  0  0  0  0  0  0  0  0  0
   -0.5808   13.1961   -3.9128 H   0  0  0  0  0  0  0  0  0  0  0  0
    0.3833   11.6139   -3.8834 H   0  0  0  0  0  0  0  0  0  0  0  0
   -1.5851   12.6181   -1.8090 H   0  0  0  0  0  0  0  0  0  0  0  0
   -1.7277   11.1828   -2.8984 H   0  0  0  0  0  0  0  0  0  0  0  0
    0.8228    9.0760   -1.3329 H   0  0  0  0  0  0  0  0  0  0  0  0
   -0.3388    9.2608   -2.6906 H   0  0  0  0  0  0  0  0  0  0  0  0
    1.1980   10.1908   -2.6906 H   0  0  0  0  0  0  0  0  0  0  0  0
  1 12  1  0  0  0  0
  1 33  1  0  0  0  0
  1 34  1  0  0  0  0
  1 35  1  0  0  0  0
  2  3  1  0  0  0  0
  2 48  1  0  0  0  0
  3  4  1  0  0  0  0
  3 49  1  0  0  0  0
  3 50  1  0  0  0  0
  4  5  1  0  0  0  0
  4 51  1  0  0  0  0
  4 52  1  0  0  0  0
  5  6  1  0  0  0  0
  5  7  1  0  0  0  0
  6 53  1  0  0  0  0
  6 54  1  0  0  0  0
  6 55  1  0  0  0  0
  7  8  1  0  0  0  0
  7 56  1  0  0  0  0
  8  9  1  0  0  0  0
  8 57  1  0  0  0  0
  8 58  1  0  0  0  0
  9 10  2  0  0  0  0
  9 59  1  0  0  0  0
 10 11  1  0  0  0  0
 11 13  1  0  0  0  0
 11 19  1  0  0  0  0
 11 60  1  0  0  0  0
  2 12  1  0  0  0  0
 12 22  1  0  0  0  0
 12 36  1  0  0  0  0
 13 14  1  0  0  0  0
 13 61  1  0  0  0  0
 13 62  1  0  0  0  0
 14 15  1  0  0  0  0
 14 63  1  0  0  0  0
 14 64  1  0  0  0  0
 15 16  1  0  0  0  0
 15 31  1  0  0  0  0
 15 65  1  0  0  0  0
 10 16  1  0  0  0  0
 16 17  1  0  0  0  0
 16 18  1  0  0  0  0
 17 67  1  0  0  0  0
 17 68  1  0  0  0  0
 17 69  1  0  0  0  0
 18 70  1  0  0  0  0
 18 71  1  0  0  0  0
 18 72  1  0  0  0  0
  7 19  1  0  0  0  0
 19 20  1  0  0  0  0
 19 21  1  0  0  0  0
 20 73  1  0  0  0  0
 20 74  1  0  0  0  0
 20 75  1  0  0  0  0
 21 23  1  0  0  0  0
 21 76  1  0  0  0  0
 21 77  1  0  0  0  0
 22 26  1  0  0  0  0
 22 37  1  0  0  0  0
 22 38  1  0  0  0  0
 23 24  1  0  0  0  0
 23 78  1  0  0  0  0
 23 79  1  0  0  0  0
  2 24  1  0  0  0  0
  5 24  1  0  0  0  0
 24 25  1  0  0  0  0
 25 80  1  0  0  0  0
 25 81  1  0  0  0  0
 25 82  1  0  0  0  0
 26 27  1  0  0  0  0
 26 39  1  0  0  0  0
 26 40  1  0  0  0  0
 27 32  1  0  0  0  0
 27 41  1  0  0  0  0
 27 28  1  0  0  0  0
 28 29  1  0  0  0  0
 28 30  1  0  0  0  0
 29 42  1  0  0  0  0
 29 43  1  0  0  0  0
 29 44  1  0  0  0  0
 30 45  1  0  0  0  0
 30 46  1  0  0  0  0
 30 47  1  0  0  0  0
 31 66  1  0  0  0  0
 28 32  1  0  0  0  0
M  END
$$$$
