EPH_relaxed_0001_pdb2pqr_Repair_69_r2_0001_out
  PyMOL3.1          3D                             0

 82 86  0  0  1  0  0  0  0  0999 V2000
   -1.7060    8.5880   -1.8730 C   0  0  0  0  0  0  0  0  0  0  0  0
   -1.2110   10.3250   -0.1420 C   0  0  1  0  0  0  0  0  0  0  0  0
   -0.1640   10.0080    0.9590 C   0  0  0  0  0  0  0  0  0  0  0  0
    1.1040   10.8330    0.6200 C   0  0  0  0  0  0  0  0  0  0  0  0
    0.6390   11.8390   -0.4590 C   0  0  1  0  0  0  0  0  0  0  0  0
   -0.0510   12.9900    0.3380 C   0  0  0  0  0  0  0  0  0  0  0  0
    1.7460   12.3840   -1.4190 C   0  0  2  0  0  0  0  0  0  0  0  0
    2.8630   13.1910   -0.7350 C   0  0  0  0  0  0  0  0  0  0  0  0
    2.6190   14.6610   -0.6370 C   0  0  0  0  0  0  0  0  0  0  0  0
    1.6880   15.3470   -1.3260 C   0  0  0  0  0  0  0  0  0  0  0  0
    0.8240   14.6540   -2.3870 C   0  0  1  0  0  0  0  0  0  0  0  0
   -2.0810    9.1220   -0.4880 C   0  0  2  0  0  0  0  0  0  0  0  0
    0.7800   15.5260   -3.6700 C   0  0  0  0  0  0  0  0  0  0  0  0
    0.3260   16.9550   -3.3900 C   0  0  0  0  0  0  0  0  0  0  0  0
    1.2450   17.6300   -2.3740 C   0  0  2  0  0  0  0  0  0  0  0  0
    1.3750   16.8370   -1.0440 C   0  0  0  0  0  0  0  0  0  0  0  0
    0.0410   16.9130   -0.2600 C   0  0  0  0  0  0  0  0  0  0  0  0
    2.4360   17.5510   -0.1640 C   0  0  0  0  0  0  0  0  0  0  0  0
    1.1850   13.1370   -2.6930 C   0  0  1  0  0  0  0  0  0  0  0  0
    2.3010   13.0640   -3.7800 C   0  0  0  0  0  0  0  0  0  0  0  0
   -0.0770   12.4210   -3.3040 C   0  0  0  0  0  0  0  0  0  0  0  0
   -3.5710    9.5060   -0.3970 C   0  0  0  0  0  0  0  0  0  0  0  0
   -1.0730   11.7980   -2.3070 C   0  0  0  0  0  0  0  0  0  0  0  0
   -0.3470   10.9280   -1.2770 C   0  0  2  0  0  0  0  0  0  0  0  0
    0.3390    9.7480   -2.0470 C   0  0  0  0  0  0  0  0  0  0  0  0
   -4.5080    8.3050   -0.2380 C   0  0  0  0  0  0  0  0  0  0  0  0
   -5.2160    7.9790   -1.5180 C   0  0  2  0  0  0  0  0  0  0  0  0
   -6.6080    7.3780   -1.5750 C   0  0  0  0  0  0  0  0  0  0  0  0
   -7.3740    7.0660   -0.3280 C   0  0  0  0  0  0  0  0  0  0  0  0
   -7.0210    6.6470   -2.8140 C   0  0  0  0  0  0  0  0  0  0  0  0
    2.5380   17.7980   -2.9620 O   0  0  0  0  0  0  0  0  0  0  0  0
   -6.3750    8.7810   -1.7810 O   0  0  0  0  0  0  0  0  0  0  0  0
   -1.0770    7.6923   -1.7627 H   0  0  0  0  0  0  0  0  0  0  0  0
   -2.6208    8.3278   -2.4257 H   0  0  0  0  0  0  0  0  0  0  0  0
   -1.1508    9.3602   -2.4257 H   0  0  0  0  0  0  0  0  0  0  0  0
   -1.9040    8.3139    0.2370 H   0  0  0  0  0  0  0  0  0  0  0  0
   -3.7063   10.1692    0.4701 H   0  0  0  0  0  0  0  0  0  0  0  0
   -3.8350    9.9962   -1.3457 H   0  0  0  0  0  0  0  0  0  0  0  0
   -3.9173    7.4314    0.0748 H   0  0  0  0  0  0  0  0  0  0  0  0
   -5.2662    8.5601    0.5170 H   0  0  0  0  0  0  0  0  0  0  0  0
   -4.2684    7.6911   -1.9967 H   0  0  0  0  0  0  0  0  0  0  0  0
   -6.7613    7.3156    0.5508 H   0  0  0  0  0  0  0  0  0  0  0  0
   -8.3007    7.6583   -0.3091 H   0  0  0  0  0  0  0  0  0  0  0  0
   -7.6231    5.9947   -0.3091 H   0  0  0  0  0  0  0  0  0  0  0  0
   -7.5445    5.7204   -2.5358 H   0  0  0  0  0  0  0  0  0  0  0  0
   -7.6930    7.2835   -3.4084 H   0  0  0  0  0  0  0  0  0  0  0  0
   -6.1291    6.3999   -3.4084 H   0  0  0  0  0  0  0  0  0  0  0  0
   -1.9935   11.0392    0.1542 H   0  0  0  0  0  0  0  0  0  0  0  0
   -0.5524   10.2986    1.9463 H   0  0  0  0  0  0  0  0  0  0  0  0
    0.0616    8.9319    0.9919 H   0  0  0  0  0  0  0  0  0  0  0  0
    1.4725   11.3623    1.5111 H   0  0  0  0  0  0  0  0  0  0  0  0
    1.9323   10.1994    0.2699 H   0  0  0  0  0  0  0  0  0  0  0  0
    0.0592   12.8062    1.4169 H   0  0  0  0  0  0  0  0  0  0  0  0
    0.4211   13.9493    0.0794 H   0  0  0  0  0  0  0  0  0  0  0  0
   -1.1196   13.0257    0.0794 H   0  0  0  0  0  0  0  0  0  0  0  0
    2.2229   11.4603   -1.7786 H   0  0  0  0  0  0  0  0  0  0  0  0
    2.9901   12.7988    0.2848 H   0  0  0  0  0  0  0  0  0  0  0  0
    3.7554   13.0720   -1.3670 H   0  0  0  0  0  0  0  0  0  0  0  0
    3.2538   15.2315    0.0569 H   0  0  0  0  0  0  0  0  0  0  0  0
   -0.1841   14.5758   -1.9538 H   0  0  0  0  0  0  0  0  0  0  0  0
    1.7874   15.5559   -4.1109 H   0  0  0  0  0  0  0  0  0  0  0  0
    0.0509   15.0724   -4.3575 H   0  0  0  0  0  0  0  0  0  0  0  0
    0.3435   17.5288   -4.3283 H   0  0  0  0  0  0  0  0  0  0  0  0
   -0.6929   16.9252   -2.9766 H   0  0  0  0  0  0  0  0  0  0  0  0
    0.7962   18.6010   -2.1176 H   0  0  0  0  0  0  0  0  0  0  0  0
    3.1750   17.3040   -2.4190 H   0  0  0  0  0  0  0  0  0  0  0  0
    0.2493   16.9011    0.8200 H   0  0  0  0  0  0  0  0  0  0  0  0
   -0.4856   17.8426   -0.5217 H   0  0  0  0  0  0  0  0  0  0  0  0
   -0.5878   16.0492   -0.5217 H   0  0  0  0  0  0  0  0  0  0  0  0
    2.1989   17.3914    0.8982 H   0  0  0  0  0  0  0  0  0  0  0  0
    3.4319   17.1386   -0.3833 H   0  0  0  0  0  0  0  0  0  0  0  0
    2.4290   18.6289   -0.3833 H   0  0  0  0  0  0  0  0  0  0  0  0
    3.2847   12.9997   -3.2919 H   0  0  0  0  0  0  0  0  0  0  0  0
    2.1441   12.1742   -4.4074 H   0  0  0  0  0  0  0  0  0  0  0  0
    2.2614   13.9667   -4.4074 H   0  0  0  0  0  0  0  0  0  0  0  0
   -0.6251   13.1648   -3.9010 H   0  0  0  0  0  0  0  0  0  0  0  0
    0.3234   11.5729   -3.8787 H   0  0  0  0  0  0  0  0  0  0  0  0
   -1.6092   12.6033   -1.7836 H   0  0  0  0  0  0  0  0  0  0  0  0
   -1.7782   11.1650   -2.8656 H   0  0  0  0  0  0  0  0  0  0  0  0
    0.7556    9.0314   -1.3239 H   0  0  0  0  0  0  0  0  0  0  0  0
   -0.4050    9.2408   -2.6788 H   0  0  0  0  0  0  0  0  0  0  0  0
    1.1479   10.1436   -2.6788 H   0  0  0  0  0  0  0  0  0  0  0  0
  1 12  1  0  0  0  0
  1 33  1  0  0  0  0
  1 34  1  0  0  0  0
  1 35  1  0  0  0  0
  2  3  1  0  0  0  0
  2 48  1  0  0  0  0
  3  4  1  0  0  0  0
  3 49  1  0  0  0  0
  3 50  1  0  0  0  0
  4  5  1  0  0  0  0
  4 51  1  0  0  0  0
  4 52  1  0  0  0  0
  5  6  1  0  0  0  0
  5  7  1  0  0  0  0
  6 53  1  0  0  0  0
  6 54  1  0  0  0  0
  6 55  1  0  0  0  0
  7  8  1  0  0  0  0
  7 56  1  0  0  0  0
  8  9  1  0  0  0  0
  8 57  1  0  0  0  0
  8 58  1  0  0  0  0
  9 10  2  0  0  0  0
  9 59  1  0  0  0  0
 10 11  1  0  0  0  0
 11 13  1  0  0  0  0
 11 19  1  0  0  0  0
 11 60  1  0  0  0  0
  2 12  1  0  0  0  0
 12 22  1  0  0  0  0
 12 36  1  0  0  0  0
 13 14  1  0  0  0  0
 13 61  1  0  0  0  0
 13 62  1  0  0  0  0
 14 15  1  0  0  0  0
 14 63  1  0  0  0  0
 14 64  1  0  0  0  0
 15 16  1  0  0  0  0
 15 31  1  0  0  0  0
 15 65  1  0  0  0  0
 10 16  1  0  0  0  0
 16 17  1  0  0  0  0
 16 18  1  0  0  0  0
 17 67  1  0  0  0  0
 17 68  1  0  0  0  0
 17 69  1  0  0  0  0
 18 70  1  0  0  0  0
 18 71  1  0  0  0  0
 18 72  1  0  0  0  0
  7 19  1  0  0  0  0
 19 20  1  0  0  0  0
 19 21  1  0  0  0  0
 20 73  1  0  0  0  0
 20 74  1  0  0  0  0
 20 75  1  0  0  0  0
 21 23  1  0  0  0  0
 21 76  1  0  0  0  0
 21 77  1  0  0  0  0
 22 26  1  0  0  0  0
 22 37  1  0  0  0  0
 22 38  1  0  0  0  0
 23 24  1  0  0  0  0
 23 78  1  0  0  0  0
 23 79  1  0  0  0  0
  2 24  1  0  0  0  0
  5 24  1  0  0  0  0
 24 25  1  0  0  0  0
 25 80  1  0  0  0  0
 25 81  1  0  0  0  0
 25 82  1  0  0  0  0
 26 27  1  0  0  0  0
 26 39  1  0  0  0  0
 26 40  1  0  0  0  0
 27 32  1  0  0  0  0
 27 41  1  0  0  0  0
 27 28  1  0  0  0  0
 28 29  1  0  0  0  0
 28 30  1  0  0  0  0
 29 42  1  0  0  0  0
 29 43  1  0  0  0  0
 29 44  1  0  0  0  0
 30 45  1  0  0  0  0
 30 46  1  0  0  0  0
 30 47  1  0  0  0  0
 31 66  1  0  0  0  0
 28 32  1  0  0  0  0
M  END
$$$$
