EPH_relaxed_0001_pdb2pqr_Repair_231_r2_0001_out
  PyMOL3.1          3D                             0

 82 86  0  0  1  0  0  0  0  0999 V2000
   -1.7190    8.5870   -1.8700 C   0  0  0  0  0  0  0  0  0  0  0  0
   -1.2470   10.3190   -0.1270 C   0  0  1  0  0  0  0  0  0  0  0  0
   -0.2260   10.0210    1.0040 C   0  0  0  0  0  0  0  0  0  0  0  0
    1.0460   10.8480    0.6880 C   0  0  0  0  0  0  0  0  0  0  0  0
    0.6030   11.8390   -0.4140 C   0  0  1  0  0  0  0  0  0  0  0  0
   -0.1130   12.9960    0.3510 C   0  0  0  0  0  0  0  0  0  0  0  0
    1.7320   12.3790   -1.3520 C   0  0  2  0  0  0  0  0  0  0  0  0
    2.8270   13.2000   -0.6490 C   0  0  0  0  0  0  0  0  0  0  0  0
    2.5730   14.6700   -0.5750 C   0  0  0  0  0  0  0  0  0  0  0  0
    1.6570   15.3430   -1.2960 C   0  0  0  0  0  0  0  0  0  0  0  0
    0.8230   14.6330   -2.3700 C   0  0  1  0  0  0  0  0  0  0  0  0
   -2.1010    9.1070   -0.4810 C   0  0  2  0  0  0  0  0  0  0  0  0
    0.8080   15.4890   -3.6640 C   0  0  0  0  0  0  0  0  0  0  0  0
    0.3400   16.9190   -3.4130 C   0  0  0  0  0  0  0  0  0  0  0  0
    1.2280   17.6110   -2.3820 C   0  0  2  0  0  0  0  0  0  0  0  0
    1.3280   16.8340   -1.0390 C   0  0  0  0  0  0  0  0  0  0  0  0
   -0.0260   16.9120   -0.2910 C   0  0  0  0  0  0  0  0  0  0  0  0
    2.3630   17.5640   -0.1410 C   0  0  0  0  0  0  0  0  0  0  0  0
    1.2000   13.1140   -2.6490 C   0  0  1  0  0  0  0  0  0  0  0  0
    2.3440   13.0340   -3.7060 C   0  0  0  0  0  0  0  0  0  0  0  0
   -0.0420   12.3840   -3.2830 C   0  0  0  0  0  0  0  0  0  0  0  0
   -3.5960    9.4720   -0.3890 C   0  0  0  0  0  0  0  0  0  0  0  0
   -1.0600   11.7680   -2.3050 C   0  0  0  0  0  0  0  0  0  0  0  0
   -0.3560   10.9130   -1.2470 C   0  0  2  0  0  0  0  0  0  0  0  0
    0.3550    9.7280   -1.9850 C   0  0  0  0  0  0  0  0  0  0  0  0
   -4.5160    8.2590   -0.2200 C   0  0  0  0  0  0  0  0  0  0  0  0
   -5.2140    7.9100   -1.5000 C   0  0  2  0  0  0  0  0  0  0  0  0
   -6.6170    7.3380   -1.5580 C   0  0  0  0  0  0  0  0  0  0  0  0
   -7.4070    7.0810   -0.3140 C   0  0  0  0  0  0  0  0  0  0  0  0
   -7.0300    6.5780   -2.7800 C   0  0  0  0  0  0  0  0  0  0  0  0
    2.5360   17.7790   -2.9380 O   0  0  0  0  0  0  0  0  0  0  0  0
   -6.3510    8.7280   -1.8040 O   0  0  0  0  0  0  0  0  0  0  0  0
   -1.0707    7.7045   -1.7656 H   0  0  0  0  0  0  0  0  0  0  0  0
   -2.6298    8.3098   -2.4210 H   0  0  0  0  0  0  0  0  0  0  0  0
   -1.1821    9.3732   -2.4210 H   0  0  0  0  0  0  0  0  0  0  0  0
   -1.9136    8.2966    0.2389 H   0  0  0  0  0  0  0  0  0  0  0  0
   -3.7383   10.1389    0.4741 H   0  0  0  0  0  0  0  0  0  0  0  0
   -3.8689    9.9528   -1.3399 H   0  0  0  0  0  0  0  0  0  0  0  0
   -3.9139    7.3973    0.1042 H   0  0  0  0  0  0  0  0  0  0  0  0
   -5.2804    8.5102    0.5300 H   0  0  0  0  0  0  0  0  0  0  0  0
   -4.2665    7.5877   -1.9564 H   0  0  0  0  0  0  0  0  0  0  0  0
   -6.7805    7.2848    0.5669 H   0  0  0  0  0  0  0  0  0  0  0  0
   -8.2886    7.7387   -0.2971 H   0  0  0  0  0  0  0  0  0  0  0  0
   -7.7329    6.0305   -0.2971 H   0  0  0  0  0  0  0  0  0  0  0  0
   -7.5353    5.6481   -2.4801 H   0  0  0  0  0  0  0  0  0  0  0  0
   -7.7182    7.1926   -3.3789 H   0  0  0  0  0  0  0  0  0  0  0  0
   -6.1399    6.3349   -3.3789 H   0  0  0  0  0  0  0  0  0  0  0  0
   -2.0409   11.0318    0.1405 H   0  0  0  0  0  0  0  0  0  0  0  0
   -0.6408   10.3213    1.9775 H   0  0  0  0  0  0  0  0  0  0  0  0
    0.0042    8.9466    1.0550 H   0  0  0  0  0  0  0  0  0  0  0  0
    1.3893   11.3893    1.5819 H   0  0  0  0  0  0  0  0  0  0  0  0
    1.8862   10.2149    0.3666 H   0  0  0  0  0  0  0  0  0  0  0  0
   -0.0137   12.8356    1.4347 H   0  0  0  0  0  0  0  0  0  0  0  0
    0.3488   13.9565    0.0787 H   0  0  0  0  0  0  0  0  0  0  0  0
   -1.1787   13.0113    0.0787 H   0  0  0  0  0  0  0  0  0  0  0  0
    2.2229   11.4538   -1.6883 H   0  0  0  0  0  0  0  0  0  0  0  0
    2.9297   12.8206    0.3784 H   0  0  0  0  0  0  0  0  0  0  0  0
    3.7361   13.0782   -1.2562 H   0  0  0  0  0  0  0  0  0  0  0  0
    3.1866   15.2520    0.1284 H   0  0  0  0  0  0  0  0  0  0  0  0
   -0.1953   14.5550   -1.9615 H   0  0  0  0  0  0  0  0  0  0  0  0
    1.8262   15.5188   -4.0791 H   0  0  0  0  0  0  0  0  0  0  0  0
    0.0992   15.0234   -4.3646 H   0  0  0  0  0  0  0  0  0  0  0  0
    0.3793   17.4816   -4.3574 H   0  0  0  0  0  0  0  0  0  0  0  0
   -0.6892   16.8886   -3.0258 H   0  0  0  0  0  0  0  0  0  0  0  0
    0.7671   18.5823   -2.1494 H   0  0  0  0  0  0  0  0  0  0  0  0
    2.7370   18.7310   -2.9350 H   0  0  0  0  0  0  0  0  0  0  0  0
    0.1535   16.9017    0.7942 H   0  0  0  0  0  0  0  0  0  0  0  0
   -0.5449   17.8415   -0.5680 H   0  0  0  0  0  0  0  0  0  0  0  0
   -0.6482   16.0482   -0.5680 H   0  0  0  0  0  0  0  0  0  0  0  0
    2.1172   17.3907    0.9171 H   0  0  0  0  0  0  0  0  0  0  0  0
    3.3702   17.1753   -0.3519 H   0  0  0  0  0  0  0  0  0  0  0  0
    2.3349   18.6432   -0.3519 H   0  0  0  0  0  0  0  0  0  0  0  0
    3.3141   12.9662   -3.1919 H   0  0  0  0  0  0  0  0  0  0  0  0
    2.1997   12.1438   -4.3358 H   0  0  0  0  0  0  0  0  0  0  0  0
    2.3250   13.9357   -4.3358 H   0  0  0  0  0  0  0  0  0  0  0  0
   -0.5782   13.1175   -3.9030 H   0  0  0  0  0  0  0  0  0  0  0  0
    0.3775   11.5310   -3.8365 H   0  0  0  0  0  0  0  0  0  0  0  0
   -1.6129   12.5766   -1.8045 H   0  0  0  0  0  0  0  0  0  0  0  0
   -1.7483   11.1256   -2.8738 H   0  0  0  0  0  0  0  0  0  0  0  0
    0.7728    9.0317   -1.2429 H   0  0  0  0  0  0  0  0  0  0  0  0
   -0.3744    9.1980   -2.6151 H   0  0  0  0  0  0  0  0  0  0  0  0
    1.1659   10.1222   -2.6151 H   0  0  0  0  0  0  0  0  0  0  0  0
  1 12  1  0  0  0  0
  1 33  1  0  0  0  0
  1 34  1  0  0  0  0
  1 35  1  0  0  0  0
  2  3  1  0  0  0  0
  2 48  1  0  0  0  0
  3  4  1  0  0  0  0
  3 49  1  0  0  0  0
  3 50  1  0  0  0  0
  4  5  1  0  0  0  0
  4 51  1  0  0  0  0
  4 52  1  0  0  0  0
  5  6  1  0  0  0  0
  5  7  1  0  0  0  0
  6 53  1  0  0  0  0
  6 54  1  0  0  0  0
  6 55  1  0  0  0  0
  7  8  1  0  0  0  0
  7 56  1  0  0  0  0
  8  9  1  0  0  0  0
  8 57  1  0  0  0  0
  8 58  1  0  0  0  0
  9 10  2  0  0  0  0
  9 59  1  0  0  0  0
 10 11  1  0  0  0  0
 11 13  1  0  0  0  0
 11 19  1  0  0  0  0
 11 60  1  0  0  0  0
  2 12  1  0  0  0  0
 12 22  1  0  0  0  0
 12 36  1  0  0  0  0
 13 14  1  0  0  0  0
 13 61  1  0  0  0  0
 13 62  1  0  0  0  0
 14 15  1  0  0  0  0
 14 63  1  0  0  0  0
 14 64  1  0  0  0  0
 15 16  1  0  0  0  0
 15 31  1  0  0  0  0
 15 65  1  0  0  0  0
 10 16  1  0  0  0  0
 16 17  1  0  0  0  0
 16 18  1  0  0  0  0
 17 67  1  0  0  0  0
 17 68  1  0  0  0  0
 17 69  1  0  0  0  0
 18 70  1  0  0  0  0
 18 71  1  0  0  0  0
 18 72  1  0  0  0  0
  7 19  1  0  0  0  0
 19 20  1  0  0  0  0
 19 21  1  0  0  0  0
 20 73  1  0  0  0  0
 20 74  1  0  0  0  0
 20 75  1  0  0  0  0
 21 23  1  0  0  0  0
 21 76  1  0  0  0  0
 21 77  1  0  0  0  0
 22 26  1  0  0  0  0
 22 37  1  0  0  0  0
 22 38  1  0  0  0  0
 23 24  1  0  0  0  0
 23 78  1  0  0  0  0
 23 79  1  0  0  0  0
  2 24  1  0  0  0  0
  5 24  1  0  0  0  0
 24 25  1  0  0  0  0
 25 80  1  0  0  0  0
 25 81  1  0  0  0  0
 25 82  1  0  0  0  0
 26 27  1  0  0  0  0
 26 39  1  0  0  0  0
 26 40  1  0  0  0  0
 27 32  1  0  0  0  0
 27 41  1  0  0  0  0
 27 28  1  0  0  0  0
 28 29  1  0  0  0  0
 28 30  1  0  0  0  0
 29 42  1  0  0  0  0
 29 43  1  0  0  0  0
 29 44  1  0  0  0  0
 30 45  1  0  0  0  0
 30 46  1  0  0  0  0
 30 47  1  0  0  0  0
 31 66  1  0  0  0  0
 28 32  1  0  0  0  0
M  END
$$$$
