EPH_relaxed_0001_pdb2pqr_Repair_73_r2_0001_out
  PyMOL3.1          3D                             0

 82 86  0  0  1  0  0  0  0  0999 V2000
   -1.7080    8.5800   -1.8830 C   0  0  0  0  0  0  0  0  0  0  0  0
   -1.2280   10.3110   -0.1420 C   0  0  1  0  0  0  0  0  0  0  0  0
   -0.1980   10.0060    0.9790 C   0  0  0  0  0  0  0  0  0  0  0  0
    1.0730   10.8350    0.6560 C   0  0  0  0  0  0  0  0  0  0  0  0
    0.6210   11.8310   -0.4380 C   0  0  1  0  0  0  0  0  0  0  0  0
   -0.0870   12.9850    0.3390 C   0  0  0  0  0  0  0  0  0  0  0  0
    1.7410   12.3740   -1.3830 C   0  0  2  0  0  0  0  0  0  0  0  0
    2.8440   13.1910   -0.6870 C   0  0  0  0  0  0  0  0  0  0  0  0
    2.5920   14.6600   -0.6030 C   0  0  0  0  0  0  0  0  0  0  0  0
    1.6700   15.3370   -1.3120 C   0  0  0  0  0  0  0  0  0  0  0  0
    0.8270   14.6330   -2.3830 C   0  0  1  0  0  0  0  0  0  0  0  0
   -2.0860    9.1020   -0.4940 C   0  0  2  0  0  0  0  0  0  0  0  0
    0.8010   15.4960   -3.6720 C   0  0  0  0  0  0  0  0  0  0  0  0
    0.3360   16.9260   -3.4100 C   0  0  0  0  0  0  0  0  0  0  0  0
    1.2340   17.6110   -2.3830 C   0  0  2  0  0  0  0  0  0  0  0  0
    1.3450   16.8280   -1.0460 C   0  0  0  0  0  0  0  0  0  0  0  0
   -0.0020   16.9030   -0.2850 C   0  0  0  0  0  0  0  0  0  0  0  0
    2.3890   17.5520   -0.1530 C   0  0  0  0  0  0  0  0  0  0  0  0
    1.1990   13.1160   -2.6720 C   0  0  1  0  0  0  0  0  0  0  0  0
    2.3330   13.0400   -3.7390 C   0  0  0  0  0  0  0  0  0  0  0  0
   -0.0500   12.3900   -3.2990 C   0  0  0  0  0  0  0  0  0  0  0  0
   -3.5800    9.4710   -0.3990 C   0  0  0  0  0  0  0  0  0  0  0  0
   -1.0600   11.7700   -2.3140 C   0  0  0  0  0  0  0  0  0  0  0  0
   -0.3470   10.9100   -1.2660 C   0  0  2  0  0  0  0  0  0  0  0  0
    0.3570    9.7270   -2.0160 C   0  0  0  0  0  0  0  0  0  0  0  0
   -4.5050    8.2600   -0.2530 C   0  0  0  0  0  0  0  0  0  0  0  0
   -5.2030    7.9360   -1.5390 C   0  0  2  0  0  0  0  0  0  0  0  0
   -6.6060    7.3640   -1.6080 C   0  0  0  0  0  0  0  0  0  0  0  0
   -7.3960    7.0800   -0.3690 C   0  0  0  0  0  0  0  0  0  0  0  0
   -7.0190    6.6280   -2.8450 C   0  0  0  0  0  0  0  0  0  0  0  0
    2.5370   17.7810   -2.9510 O   0  0  0  0  0  0  0  0  0  0  0  0
   -6.3420    8.7590   -1.8260 O   0  0  0  0  0  0  0  0  0  0  0  0
   -1.0657    7.6930   -1.7791 H   0  0  0  0  0  0  0  0  0  0  0  0
   -2.6208    8.3092   -2.4339 H   0  0  0  0  0  0  0  0  0  0  0  0
   -1.1659    9.3628   -2.4339 H   0  0  0  0  0  0  0  0  0  0  0  0
   -1.8997    8.2914    0.2259 H   0  0  0  0  0  0  0  0  0  0  0  0
   -3.7216   10.1235    0.4752 H   0  0  0  0  0  0  0  0  0  0  0  0
   -3.8487    9.9688   -1.3424 H   0  0  0  0  0  0  0  0  0  0  0  0
   -3.9070    7.3902    0.0568 H   0  0  0  0  0  0  0  0  0  0  0  0
   -5.2695    8.5019    0.5000 H   0  0  0  0  0  0  0  0  0  0  0  0
   -4.2553    7.6238   -2.0021 H   0  0  0  0  0  0  0  0  0  0  0  0
   -6.7816    7.3009    0.5163 H   0  0  0  0  0  0  0  0  0  0  0  0
   -8.2974    7.7104   -0.3563 H   0  0  0  0  0  0  0  0  0  0  0  0
   -7.6897    6.0200   -0.3563 H   0  0  0  0  0  0  0  0  0  0  0  0
   -7.5394    5.7007   -2.5634 H   0  0  0  0  0  0  0  0  0  0  0  0
   -7.6938    7.2609   -3.4401 H   0  0  0  0  0  0  0  0  0  0  0  0
   -6.1273    6.3818   -3.4401 H   0  0  0  0  0  0  0  0  0  0  0  0
   -2.0187   11.0236    0.1354 H   0  0  0  0  0  0  0  0  0  0  0  0
   -0.6044   10.3014    1.9576 H   0  0  0  0  0  0  0  0  0  0  0  0
    0.0318    8.9312    1.0227 H   0  0  0  0  0  0  0  0  0  0  0  0
    1.4238   11.3723    1.5495 H   0  0  0  0  0  0  0  0  0  0  0  0
    1.9104   10.2032    0.3250 H   0  0  0  0  0  0  0  0  0  0  0  0
    0.0167   12.8161    1.4210 H   0  0  0  0  0  0  0  0  0  0  0  0
    0.3773   13.9458    0.0718 H   0  0  0  0  0  0  0  0  0  0  0  0
   -1.1538   13.0064    0.0718 H   0  0  0  0  0  0  0  0  0  0  0  0
    2.2266   11.4490   -1.7272 H   0  0  0  0  0  0  0  0  0  0  0  0
    2.9569   12.8063    0.3373 H   0  0  0  0  0  0  0  0  0  0  0  0
    3.7467   13.0717   -1.3042 H   0  0  0  0  0  0  0  0  0  0  0  0
    3.2124   15.2380    0.0977 H   0  0  0  0  0  0  0  0  0  0  0  0
   -0.1880   14.5534   -1.9666 H   0  0  0  0  0  0  0  0  0  0  0  0
    1.8156   15.5273   -4.0959 H   0  0  0  0  0  0  0  0  0  0  0  0
    0.0852   15.0346   -4.3682 H   0  0  0  0  0  0  0  0  0  0  0  0
    0.3680   17.4934   -4.3518 H   0  0  0  0  0  0  0  0  0  0  0  0
   -0.6901   16.8952   -3.0148 H   0  0  0  0  0  0  0  0  0  0  0  0
    0.7763   18.5813   -2.1401 H   0  0  0  0  0  0  0  0  0  0  0  0
    2.4960   17.4840   -3.8760 H   0  0  0  0  0  0  0  0  0  0  0  0
    0.1879   16.8924    0.7984 H   0  0  0  0  0  0  0  0  0  0  0  0
   -0.5253   17.8317   -0.5565 H   0  0  0  0  0  0  0  0  0  0  0  0
   -0.6252   16.0382   -0.5565 H   0  0  0  0  0  0  0  0  0  0  0  0
    2.1454   17.3831    0.9063 H   0  0  0  0  0  0  0  0  0  0  0  0
    3.3924   17.1548   -0.3664 H   0  0  0  0  0  0  0  0  0  0  0  0
    2.3687   18.6309   -0.3664 H   0  0  0  0  0  0  0  0  0  0  0  0
    3.3080   12.9747   -3.2339 H   0  0  0  0  0  0  0  0  0  0  0  0
    2.1855   12.1497   -4.3680 H   0  0  0  0  0  0  0  0  0  0  0  0
    2.3057   13.9420   -4.3680 H   0  0  0  0  0  0  0  0  0  0  0  0
   -0.5911   13.1271   -3.9105 H   0  0  0  0  0  0  0  0  0  0  0  0
    0.3634   11.5395   -3.8608 H   0  0  0  0  0  0  0  0  0  0  0  0
   -1.6079   12.5768   -1.8051 H   0  0  0  0  0  0  0  0  0  0  0  0
   -1.7537   11.1304   -2.8794 H   0  0  0  0  0  0  0  0  0  0  0  0
    0.7754    9.0239   -1.2807 H   0  0  0  0  0  0  0  0  0  0  0  0
   -0.3770    9.2042   -2.6468 H   0  0  0  0  0  0  0  0  0  0  0  0
    1.1666   10.1228   -2.6468 H   0  0  0  0  0  0  0  0  0  0  0  0
  1 12  1  0  0  0  0
  1 33  1  0  0  0  0
  1 34  1  0  0  0  0
  1 35  1  0  0  0  0
  2  3  1  0  0  0  0
  2 48  1  0  0  0  0
  3  4  1  0  0  0  0
  3 49  1  0  0  0  0
  3 50  1  0  0  0  0
  4  5  1  0  0  0  0
  4 51  1  0  0  0  0
  4 52  1  0  0  0  0
  5  6  1  0  0  0  0
  5  7  1  0  0  0  0
  6 53  1  0  0  0  0
  6 54  1  0  0  0  0
  6 55  1  0  0  0  0
  7  8  1  0  0  0  0
  7 56  1  0  0  0  0
  8  9  1  0  0  0  0
  8 57  1  0  0  0  0
  8 58  1  0  0  0  0
  9 10  2  0  0  0  0
  9 59  1  0  0  0  0
 10 11  1  0  0  0  0
 11 13  1  0  0  0  0
 11 19  1  0  0  0  0
 11 60  1  0  0  0  0
  2 12  1  0  0  0  0
 12 22  1  0  0  0  0
 12 36  1  0  0  0  0
 13 14  1  0  0  0  0
 13 61  1  0  0  0  0
 13 62  1  0  0  0  0
 14 15  1  0  0  0  0
 14 63  1  0  0  0  0
 14 64  1  0  0  0  0
 15 16  1  0  0  0  0
 15 31  1  0  0  0  0
 15 65  1  0  0  0  0
 10 16  1  0  0  0  0
 16 17  1  0  0  0  0
 16 18  1  0  0  0  0
 17 67  1  0  0  0  0
 17 68  1  0  0  0  0
 17 69  1  0  0  0  0
 18 70  1  0  0  0  0
 18 71  1  0  0  0  0
 18 72  1  0  0  0  0
  7 19  1  0  0  0  0
 19 20  1  0  0  0  0
 19 21  1  0  0  0  0
 20 73  1  0  0  0  0
 20 74  1  0  0  0  0
 20 75  1  0  0  0  0
 21 23  1  0  0  0  0
 21 76  1  0  0  0  0
 21 77  1  0  0  0  0
 22 26  1  0  0  0  0
 22 37  1  0  0  0  0
 22 38  1  0  0  0  0
 23 24  1  0  0  0  0
 23 78  1  0  0  0  0
 23 79  1  0  0  0  0
  2 24  1  0  0  0  0
  5 24  1  0  0  0  0
 24 25  1  0  0  0  0
 25 80  1  0  0  0  0
 25 81  1  0  0  0  0
 25 82  1  0  0  0  0
 26 27  1  0  0  0  0
 26 39  1  0  0  0  0
 26 40  1  0  0  0  0
 27 32  1  0  0  0  0
 27 41  1  0  0  0  0
 27 28  1  0  0  0  0
 28 29  1  0  0  0  0
 28 30  1  0  0  0  0
 29 42  1  0  0  0  0
 29 43  1  0  0  0  0
 29 44  1  0  0  0  0
 30 45  1  0  0  0  0
 30 46  1  0  0  0  0
 30 47  1  0  0  0  0
 31 66  1  0  0  0  0
 28 32  1  0  0  0  0
M  END
$$$$
