EPH_relaxed_0001_pdb2pqr_Repair_49_r2_0001_out
  PyMOL3.1          3D                             0

 82 86  0  0  1  0  0  0  0  0999 V2000
   -1.7010    8.5790   -1.8530 C   0  0  0  0  0  0  0  0  0  0  0  0
   -1.2330   10.3240   -0.1220 C   0  0  1  0  0  0  0  0  0  0  0  0
   -0.2040   10.0210    1.0000 C   0  0  0  0  0  0  0  0  0  0  0  0
    1.0670   10.8480    0.6770 C   0  0  0  0  0  0  0  0  0  0  0  0
    0.6170   11.8420   -0.4190 C   0  0  1  0  0  0  0  0  0  0  0  0
   -0.0910   12.9980    0.3550 C   0  0  0  0  0  0  0  0  0  0  0  0
    1.7390   12.3830   -1.3640 C   0  0  2  0  0  0  0  0  0  0  0  0
    2.8410   13.2000   -0.6680 C   0  0  0  0  0  0  0  0  0  0  0  0
    2.5900   14.6700   -0.5880 C   0  0  0  0  0  0  0  0  0  0  0  0
    1.6690   15.3460   -1.2990 C   0  0  0  0  0  0  0  0  0  0  0  0
    0.8260   14.6400   -2.3700 C   0  0  1  0  0  0  0  0  0  0  0  0
   -2.0920    9.1150   -0.4720 C   0  0  2  0  0  0  0  0  0  0  0  0
    0.8020   15.5010   -3.6600 C   0  0  0  0  0  0  0  0  0  0  0  0
    0.3380   16.9310   -3.4020 C   0  0  0  0  0  0  0  0  0  0  0  0
    1.2360   17.6180   -2.3760 C   0  0  2  0  0  0  0  0  0  0  0  0
    1.3450   16.8370   -1.0360 C   0  0  0  0  0  0  0  0  0  0  0  0
   -0.0030   16.9150   -0.2770 C   0  0  0  0  0  0  0  0  0  0  0  0
    2.3880   17.5630   -0.1440 C   0  0  0  0  0  0  0  0  0  0  0  0
    1.1980   13.1220   -2.6550 C   0  0  1  0  0  0  0  0  0  0  0  0
    2.3330   13.0440   -3.7210 C   0  0  0  0  0  0  0  0  0  0  0  0
   -0.0500   12.3960   -3.2820 C   0  0  0  0  0  0  0  0  0  0  0  0
   -3.5850    9.4890   -0.3960 C   0  0  0  0  0  0  0  0  0  0  0  0
   -1.0620   11.7780   -2.2970 C   0  0  0  0  0  0  0  0  0  0  0  0
   -0.3500   10.9200   -1.2470 C   0  0  2  0  0  0  0  0  0  0  0  0
    0.3530    9.7350   -1.9940 C   0  0  0  0  0  0  0  0  0  0  0  0
   -4.5140    8.2840   -0.2190 C   0  0  0  0  0  0  0  0  0  0  0  0
   -5.1910    7.9140   -1.5040 C   0  0  2  0  0  0  0  0  0  0  0  0
   -6.5800    7.3060   -1.5720 C   0  0  0  0  0  0  0  0  0  0  0  0
   -7.3740    7.0330   -0.3330 C   0  0  0  0  0  0  0  0  0  0  0  0
   -6.9630    6.5320   -2.7950 C   0  0  0  0  0  0  0  0  0  0  0  0
    2.5390   17.7860   -2.9430 O   0  0  0  0  0  0  0  0  0  0  0  0
   -6.3460    8.7020   -1.8200 O   0  0  0  0  0  0  0  0  0  0  0  0
   -1.0565    7.6955   -1.7344 H   0  0  0  0  0  0  0  0  0  0  0  0
   -2.6085    8.2990   -2.4081 H   0  0  0  0  0  0  0  0  0  0  0  0
   -1.1573    9.3576   -2.4081 H   0  0  0  0  0  0  0  0  0  0  0  0
   -1.9163    8.3107    0.2575 H   0  0  0  0  0  0  0  0  0  0  0  0
   -3.7299   10.1674    0.4577 H   0  0  0  0  0  0  0  0  0  0  0  0
   -3.8477    9.9589   -1.3553 H   0  0  0  0  0  0  0  0  0  0  0  0
   -3.9222    7.4259    0.1323 H   0  0  0  0  0  0  0  0  0  0  0  0
   -5.2899    8.5531    0.5129 H   0  0  0  0  0  0  0  0  0  0  0  0
   -4.2317    7.6147   -1.9515 H   0  0  0  0  0  0  0  0  0  0  0  0
   -6.7566    7.2453    0.5523 H   0  0  0  0  0  0  0  0  0  0  0  0
   -8.2665    7.6759   -0.3204 H   0  0  0  0  0  0  0  0  0  0  0  0
   -7.6824    5.9772   -0.3204 H   0  0  0  0  0  0  0  0  0  0  0  0
   -7.4325    5.5831   -2.4963 H   0  0  0  0  0  0  0  0  0  0  0  0
   -7.6739    7.1204   -3.3936 H   0  0  0  0  0  0  0  0  0  0  0  0
   -6.0640    6.3238   -3.3936 H   0  0  0  0  0  0  0  0  0  0  0  0
   -2.0236   11.0376    0.1533 H   0  0  0  0  0  0  0  0  0  0  0  0
   -0.6111   10.3185    1.9776 H   0  0  0  0  0  0  0  0  0  0  0  0
    0.0254    8.9461    1.0456 H   0  0  0  0  0  0  0  0  0  0  0  0
    1.4172   11.3867    1.5699 H   0  0  0  0  0  0  0  0  0  0  0  0
    1.9043   10.2150    0.3480 H   0  0  0  0  0  0  0  0  0  0  0  0
    0.0113   12.8310    1.4374 H   0  0  0  0  0  0  0  0  0  0  0  0
    0.3743   13.9579    0.0865 H   0  0  0  0  0  0  0  0  0  0  0  0
   -1.1575   13.0197    0.0865 H   0  0  0  0  0  0  0  0  0  0  0  0
    2.2257   11.4579   -1.7063 H   0  0  0  0  0  0  0  0  0  0  0  0
    2.9515   12.8176    0.3575 H   0  0  0  0  0  0  0  0  0  0  0  0
    3.7449   13.0783   -1.2829 H   0  0  0  0  0  0  0  0  0  0  0  0
    3.2106   15.2493    0.1115 H   0  0  0  0  0  0  0  0  0  0  0  0
   -0.1899   14.5613   -1.9555 H   0  0  0  0  0  0  0  0  0  0  0  0
    1.8171   15.5308   -4.0827 H   0  0  0  0  0  0  0  0  0  0  0  0
    0.0863   15.0388   -4.3559 H   0  0  0  0  0  0  0  0  0  0  0  0
    0.3709   17.4961   -4.3452 H   0  0  0  0  0  0  0  0  0  0  0  0
   -0.6884   16.9018   -3.0074 H   0  0  0  0  0  0  0  0  0  0  0  0
    0.7792   18.5894   -2.1358 H   0  0  0  0  0  0  0  0  0  0  0  0
    2.8740   16.9040   -3.1760 H   0  0  0  0  0  0  0  0  0  0  0  0
    0.1852   16.9041    0.8067 H   0  0  0  0  0  0  0  0  0  0  0  0
   -0.5239   17.8448   -0.5494 H   0  0  0  0  0  0  0  0  0  0  0  0
   -0.6276   16.0515   -0.5494 H   0  0  0  0  0  0  0  0  0  0  0  0
    2.1453   17.3941    0.9155 H   0  0  0  0  0  0  0  0  0  0  0  0
    3.3919   17.1675   -0.3578 H   0  0  0  0  0  0  0  0  0  0  0  0
    2.3657   18.6418   -0.3578 H   0  0  0  0  0  0  0  0  0  0  0  0
    3.3074   12.9770   -3.2149 H   0  0  0  0  0  0  0  0  0  0  0  0
    2.1846   12.1539   -4.3501 H   0  0  0  0  0  0  0  0  0  0  0  0
    2.3078   13.9460   -4.3501 H   0  0  0  0  0  0  0  0  0  0  0  0
   -0.5899   13.1323   -3.8955 H   0  0  0  0  0  0  0  0  0  0  0  0
    0.3637   11.5443   -3.8418 H   0  0  0  0  0  0  0  0  0  0  0  0
   -1.6103   12.5858   -1.7902 H   0  0  0  0  0  0  0  0  0  0  0  0
   -1.7556   11.1378   -2.8619 H   0  0  0  0  0  0  0  0  0  0  0  0
    0.7697    9.0327   -1.2570 H   0  0  0  0  0  0  0  0  0  0  0  0
   -0.3811    9.2121   -2.6246 H   0  0  0  0  0  0  0  0  0  0  0  0
    1.1638   10.1286   -2.6246 H   0  0  0  0  0  0  0  0  0  0  0  0
  1 12  1  0  0  0  0
  1 33  1  0  0  0  0
  1 34  1  0  0  0  0
  1 35  1  0  0  0  0
  2  3  1  0  0  0  0
  2 48  1  0  0  0  0
  3  4  1  0  0  0  0
  3 49  1  0  0  0  0
  3 50  1  0  0  0  0
  4  5  1  0  0  0  0
  4 51  1  0  0  0  0
  4 52  1  0  0  0  0
  5  6  1  0  0  0  0
  5  7  1  0  0  0  0
  6 53  1  0  0  0  0
  6 54  1  0  0  0  0
  6 55  1  0  0  0  0
  7  8  1  0  0  0  0
  7 56  1  0  0  0  0
  8  9  1  0  0  0  0
  8 57  1  0  0  0  0
  8 58  1  0  0  0  0
  9 10  2  0  0  0  0
  9 59  1  0  0  0  0
 10 11  1  0  0  0  0
 11 13  1  0  0  0  0
 11 19  1  0  0  0  0
 11 60  1  0  0  0  0
  2 12  1  0  0  0  0
 12 22  1  0  0  0  0
 12 36  1  0  0  0  0
 13 14  1  0  0  0  0
 13 61  1  0  0  0  0
 13 62  1  0  0  0  0
 14 15  1  0  0  0  0
 14 63  1  0  0  0  0
 14 64  1  0  0  0  0
 15 16  1  0  0  0  0
 15 31  1  0  0  0  0
 15 65  1  0  0  0  0
 10 16  1  0  0  0  0
 16 17  1  0  0  0  0
 16 18  1  0  0  0  0
 17 67  1  0  0  0  0
 17 68  1  0  0  0  0
 17 69  1  0  0  0  0
 18 70  1  0  0  0  0
 18 71  1  0  0  0  0
 18 72  1  0  0  0  0
  7 19  1  0  0  0  0
 19 20  1  0  0  0  0
 19 21  1  0  0  0  0
 20 73  1  0  0  0  0
 20 74  1  0  0  0  0
 20 75  1  0  0  0  0
 21 23  1  0  0  0  0
 21 76  1  0  0  0  0
 21 77  1  0  0  0  0
 22 26  1  0  0  0  0
 22 37  1  0  0  0  0
 22 38  1  0  0  0  0
 23 24  1  0  0  0  0
 23 78  1  0  0  0  0
 23 79  1  0  0  0  0
  2 24  1  0  0  0  0
  5 24  1  0  0  0  0
 24 25  1  0  0  0  0
 25 80  1  0  0  0  0
 25 81  1  0  0  0  0
 25 82  1  0  0  0  0
 26 27  1  0  0  0  0
 26 39  1  0  0  0  0
 26 40  1  0  0  0  0
 27 32  1  0  0  0  0
 27 41  1  0  0  0  0
 27 28  1  0  0  0  0
 28 29  1  0  0  0  0
 28 30  1  0  0  0  0
 29 42  1  0  0  0  0
 29 43  1  0  0  0  0
 29 44  1  0  0  0  0
 30 45  1  0  0  0  0
 30 46  1  0  0  0  0
 30 47  1  0  0  0  0
 31 66  1  0  0  0  0
 28 32  1  0  0  0  0
M  END
$$$$
