EPH_relaxed_0001_pdb2pqr_Repair_70_r2_0001_out
  PyMOL3.1          3D                             0

 82 86  0  0  1  0  0  0  0  0999 V2000
   -1.7160    8.5770   -1.8700 C   0  0  0  0  0  0  0  0  0  0  0  0
   -1.2420   10.3080   -0.1270 C   0  0  1  0  0  0  0  0  0  0  0  0
   -0.2210   10.0090    1.0020 C   0  0  0  0  0  0  0  0  0  0  0  0
    1.0510   10.8370    0.6860 C   0  0  0  0  0  0  0  0  0  0  0  0
    0.6070   11.8280   -0.4150 C   0  0  1  0  0  0  0  0  0  0  0  0
   -0.1080   12.9850    0.3510 C   0  0  0  0  0  0  0  0  0  0  0  0
    1.7350   12.3680   -1.3540 C   0  0  2  0  0  0  0  0  0  0  0  0
    2.8310   13.1890   -0.6520 C   0  0  0  0  0  0  0  0  0  0  0  0
    2.5780   14.6580   -0.5770 C   0  0  0  0  0  0  0  0  0  0  0  0
    1.6610   15.3310   -1.2960 C   0  0  0  0  0  0  0  0  0  0  0  0
    0.8270   14.6220   -2.3710 C   0  0  1  0  0  0  0  0  0  0  0  0
   -2.0970    9.0970   -0.4820 C   0  0  2  0  0  0  0  0  0  0  0  0
    0.8110   15.4790   -3.6630 C   0  0  0  0  0  0  0  0  0  0  0  0
    0.3430   16.9100   -3.4110 C   0  0  0  0  0  0  0  0  0  0  0  0
    1.2330   17.6000   -2.3810 C   0  0  2  0  0  0  0  0  0  0  0  0
    1.3330   16.8230   -1.0390 C   0  0  0  0  0  0  0  0  0  0  0  0
   -0.0200   16.9010   -0.2890 C   0  0  0  0  0  0  0  0  0  0  0  0
    2.3690   17.5520   -0.1410 C   0  0  0  0  0  0  0  0  0  0  0  0
    1.2030   13.1030   -2.6500 C   0  0  1  0  0  0  0  0  0  0  0  0
    2.3460   13.0240   -3.7080 C   0  0  0  0  0  0  0  0  0  0  0  0
   -0.0400   12.3740   -3.2840 C   0  0  0  0  0  0  0  0  0  0  0  0
   -3.5920    9.4620   -0.3890 C   0  0  0  0  0  0  0  0  0  0  0  0
   -1.0580   11.7580   -2.3050 C   0  0  0  0  0  0  0  0  0  0  0  0
   -0.3520   10.9020   -1.2480 C   0  0  2  0  0  0  0  0  0  0  0  0
    0.3580    9.7170   -1.9870 C   0  0  0  0  0  0  0  0  0  0  0  0
   -4.5120    8.2500   -0.2180 C   0  0  0  0  0  0  0  0  0  0  0  0
   -5.2150    7.9030   -1.4950 C   0  0  2  0  0  0  0  0  0  0  0  0
   -6.6250    7.3440   -1.5490 C   0  0  0  0  0  0  0  0  0  0  0  0
   -7.4150    7.0990   -0.3020 C   0  0  0  0  0  0  0  0  0  0  0  0
   -7.0470    6.5840   -2.7670 C   0  0  0  0  0  0  0  0  0  0  0  0
    2.5400   17.7690   -2.9380 O   0  0  0  0  0  0  0  0  0  0  0  0
   -6.3450    8.7310   -1.8000 O   0  0  0  0  0  0  0  0  0  0  0  0
   -1.0688    7.6937   -1.7657 H   0  0  0  0  0  0  0  0  0  0  0  0
   -2.6272    8.3010   -2.4210 H   0  0  0  0  0  0  0  0  0  0  0  0
   -1.1782    9.3626   -2.4210 H   0  0  0  0  0  0  0  0  0  0  0  0
   -1.9096    8.2864    0.2376 H   0  0  0  0  0  0  0  0  0  0  0  0
   -3.7334   10.1298    0.4736 H   0  0  0  0  0  0  0  0  0  0  0  0
   -3.8656    9.9416   -1.3404 H   0  0  0  0  0  0  0  0  0  0  0  0
   -3.9094    7.3875    0.1029 H   0  0  0  0  0  0  0  0  0  0  0  0
   -5.2734    8.5011    0.5352 H   0  0  0  0  0  0  0  0  0  0  0  0
   -4.2714    7.5697   -1.9516 H   0  0  0  0  0  0  0  0  0  0  0  0
   -6.7831    7.2950    0.5768 H   0  0  0  0  0  0  0  0  0  0  0  0
   -8.2874    7.7688   -0.2831 H   0  0  0  0  0  0  0  0  0  0  0  0
   -7.7553    6.0531   -0.2831 H   0  0  0  0  0  0  0  0  0  0  0  0
   -7.5602    5.6598   -2.4630 H   0  0  0  0  0  0  0  0  0  0  0  0
   -7.7307    7.2028   -3.3667 H   0  0  0  0  0  0  0  0  0  0  0  0
   -6.1603    6.3308   -3.3667 H   0  0  0  0  0  0  0  0  0  0  0  0
   -2.0350   11.0211    0.1428 H   0  0  0  0  0  0  0  0  0  0  0  0
   -0.6352   10.3080    1.9762 H   0  0  0  0  0  0  0  0  0  0  0  0
    0.0095    8.9346    1.0515 H   0  0  0  0  0  0  0  0  0  0  0  0
    1.3944   11.3780    1.5801 H   0  0  0  0  0  0  0  0  0  0  0  0
    1.8915   10.2045    0.3641 H   0  0  0  0  0  0  0  0  0  0  0  0
   -0.0084   12.8238    1.4346 H   0  0  0  0  0  0  0  0  0  0  0  0
    0.3543   13.9454    0.0791 H   0  0  0  0  0  0  0  0  0  0  0  0
   -1.1737   13.0011    0.0791 H   0  0  0  0  0  0  0  0  0  0  0  0
    2.2247   11.4423   -1.6907 H   0  0  0  0  0  0  0  0  0  0  0  0
    2.9348   12.8092    0.3751 H   0  0  0  0  0  0  0  0  0  0  0  0
    3.7391   13.0674   -1.2607 H   0  0  0  0  0  0  0  0  0  0  0  0
    3.1931   15.2397    0.1254 H   0  0  0  0  0  0  0  0  0  0  0  0
   -0.1916   14.5436   -1.9633 H   0  0  0  0  0  0  0  0  0  0  0  0
    1.8290   15.5091   -4.0787 H   0  0  0  0  0  0  0  0  0  0  0  0
    0.1011   15.0141   -4.3630 H   0  0  0  0  0  0  0  0  0  0  0  0
    0.3814   17.4731   -4.3552 H   0  0  0  0  0  0  0  0  0  0  0  0
   -0.6859   16.8804   -3.0232 H   0  0  0  0  0  0  0  0  0  0  0  0
    0.7732   18.5716   -2.1473 H   0  0  0  0  0  0  0  0  0  0  0  0
    2.7610   16.9540   -3.4200 H   0  0  0  0  0  0  0  0  0  0  0  0
    0.1611   16.8906    0.7959 H   0  0  0  0  0  0  0  0  0  0  0  0
   -0.5393   17.8306   -0.5652 H   0  0  0  0  0  0  0  0  0  0  0  0
   -0.6426   16.0373   -0.5652 H   0  0  0  0  0  0  0  0  0  0  0  0
    2.1231   17.3790    0.9171 H   0  0  0  0  0  0  0  0  0  0  0  0
    3.3757   17.1622   -0.3520 H   0  0  0  0  0  0  0  0  0  0  0  0
    2.3420   18.6312   -0.3520 H   0  0  0  0  0  0  0  0  0  0  0  0
    3.3166   12.9569   -3.1948 H   0  0  0  0  0  0  0  0  0  0  0  0
    2.2019   12.1337   -4.3377 H   0  0  0  0  0  0  0  0  0  0  0  0
    2.3257   13.9257   -4.3377 H   0  0  0  0  0  0  0  0  0  0  0  0
   -0.5762   13.1082   -3.9033 H   0  0  0  0  0  0  0  0  0  0  0  0
    0.3785   11.5211   -3.8385 H   0  0  0  0  0  0  0  0  0  0  0  0
   -1.6100   12.5666   -1.8035 H   0  0  0  0  0  0  0  0  0  0  0  0
   -1.7477   11.1165   -2.8731 H   0  0  0  0  0  0  0  0  0  0  0  0
    0.7756    9.0200   -1.2455 H   0  0  0  0  0  0  0  0  0  0  0  0
   -0.3720    9.1879   -2.6172 H   0  0  0  0  0  0  0  0  0  0  0  0
    1.1689   10.1111   -2.6172 H   0  0  0  0  0  0  0  0  0  0  0  0
  1 12  1  0  0  0  0
  1 33  1  0  0  0  0
  1 34  1  0  0  0  0
  1 35  1  0  0  0  0
  2  3  1  0  0  0  0
  2 48  1  0  0  0  0
  3  4  1  0  0  0  0
  3 49  1  0  0  0  0
  3 50  1  0  0  0  0
  4  5  1  0  0  0  0
  4 51  1  0  0  0  0
  4 52  1  0  0  0  0
  5  6  1  0  0  0  0
  5  7  1  0  0  0  0
  6 53  1  0  0  0  0
  6 54  1  0  0  0  0
  6 55  1  0  0  0  0
  7  8  1  0  0  0  0
  7 56  1  0  0  0  0
  8  9  1  0  0  0  0
  8 57  1  0  0  0  0
  8 58  1  0  0  0  0
  9 10  2  0  0  0  0
  9 59  1  0  0  0  0
 10 11  1  0  0  0  0
 11 13  1  0  0  0  0
 11 19  1  0  0  0  0
 11 60  1  0  0  0  0
  2 12  1  0  0  0  0
 12 22  1  0  0  0  0
 12 36  1  0  0  0  0
 13 14  1  0  0  0  0
 13 61  1  0  0  0  0
 13 62  1  0  0  0  0
 14 15  1  0  0  0  0
 14 63  1  0  0  0  0
 14 64  1  0  0  0  0
 15 16  1  0  0  0  0
 15 31  1  0  0  0  0
 15 65  1  0  0  0  0
 10 16  1  0  0  0  0
 16 17  1  0  0  0  0
 16 18  1  0  0  0  0
 17 67  1  0  0  0  0
 17 68  1  0  0  0  0
 17 69  1  0  0  0  0
 18 70  1  0  0  0  0
 18 71  1  0  0  0  0
 18 72  1  0  0  0  0
  7 19  1  0  0  0  0
 19 20  1  0  0  0  0
 19 21  1  0  0  0  0
 20 73  1  0  0  0  0
 20 74  1  0  0  0  0
 20 75  1  0  0  0  0
 21 23  1  0  0  0  0
 21 76  1  0  0  0  0
 21 77  1  0  0  0  0
 22 26  1  0  0  0  0
 22 37  1  0  0  0  0
 22 38  1  0  0  0  0
 23 24  1  0  0  0  0
 23 78  1  0  0  0  0
 23 79  1  0  0  0  0
  2 24  1  0  0  0  0
  5 24  1  0  0  0  0
 24 25  1  0  0  0  0
 25 80  1  0  0  0  0
 25 81  1  0  0  0  0
 25 82  1  0  0  0  0
 26 27  1  0  0  0  0
 26 39  1  0  0  0  0
 26 40  1  0  0  0  0
 27 32  1  0  0  0  0
 27 41  1  0  0  0  0
 27 28  1  0  0  0  0
 28 29  1  0  0  0  0
 28 30  1  0  0  0  0
 29 42  1  0  0  0  0
 29 43  1  0  0  0  0
 29 44  1  0  0  0  0
 30 45  1  0  0  0  0
 30 46  1  0  0  0  0
 30 47  1  0  0  0  0
 31 66  1  0  0  0  0
 28 32  1  0  0  0  0
M  END
$$$$
