EPH_relaxed_0001_pdb2pqr_Repair_200_r2_0001_out
  PyMOL3.1          3D                             0

 82 86  0  0  1  0  0  0  0  0999 V2000
   -1.6940    8.4800   -1.9110 C   0  0  0  0  0  0  0  0  0  0  0  0
   -1.2050   10.2450   -0.2070 C   0  0  1  0  0  0  0  0  0  0  0  0
   -0.1730    9.9740    0.9200 C   0  0  0  0  0  0  0  0  0  0  0  0
    1.0940   10.7990    0.5750 C   0  0  0  0  0  0  0  0  0  0  0  0
    0.6370   11.7640   -0.5440 C   0  0  1  0  0  0  0  0  0  0  0  0
   -0.0750   12.9350    0.2030 C   0  0  0  0  0  0  0  0  0  0  0  0
    1.7550   12.2870   -1.5040 C   0  0  2  0  0  0  0  0  0  0  0  0
    2.8540   13.1260   -0.8290 C   0  0  0  0  0  0  0  0  0  0  0  0
    2.5970   14.5960   -0.7840 C   0  0  0  0  0  0  0  0  0  0  0  0
    1.6720   15.2510   -1.5100 C   0  0  0  0  0  0  0  0  0  0  0  0
    0.8310   14.5150   -2.5620 C   0  0  1  0  0  0  0  0  0  0  0  0
   -2.0580    9.0230   -0.5270 C   0  0  2  0  0  0  0  0  0  0  0  0
    0.8010   15.3440   -3.8730 C   0  0  0  0  0  0  0  0  0  0  0  0
    0.3300   16.7780   -3.6480 C   0  0  0  0  0  0  0  0  0  0  0  0
    1.2260   17.4940   -2.6410 C   0  0  2  0  0  0  0  0  0  0  0  0
    1.3410   16.7460   -1.2830 C   0  0  0  0  0  0  0  0  0  0  0  0
   -0.0060   16.8360   -0.5240 C   0  0  0  0  0  0  0  0  0  0  0  0
    2.3810   17.4980   -0.4100 C   0  0  0  0  0  0  0  0  0  0  0  0
    1.2090   12.9920   -2.8110 C   0  0  1  0  0  0  0  0  0  0  0  0
    2.3430   12.8930   -3.8770 C   0  0  0  0  0  0  0  0  0  0  0  0
   -0.0370   12.2450   -3.4180 C   0  0  0  0  0  0  0  0  0  0  0  0
   -3.5540    9.3830   -0.4190 C   0  0  0  0  0  0  0  0  0  0  0  0
   -1.0440   11.6470   -2.4170 C   0  0  0  0  0  0  0  0  0  0  0  0
   -0.3270   10.8170   -1.3480 C   0  0  2  0  0  0  0  0  0  0  0  0
    0.3810    9.6190   -2.0670 C   0  0  0  0  0  0  0  0  0  0  0  0
   -4.4730    8.1640   -0.3000 C   0  0  0  0  0  0  0  0  0  0  0  0
   -5.1900    7.8830   -1.5860 C   0  0  2  0  0  0  0  0  0  0  0  0
   -6.5840    7.2870   -1.6530 C   0  0  0  0  0  0  0  0  0  0  0  0
   -7.3430    6.9350   -0.4130 C   0  0  0  0  0  0  0  0  0  0  0  0
   -7.0070    6.5990   -2.9130 C   0  0  0  0  0  0  0  0  0  0  0  0
    2.5270   17.6540   -3.2130 O   0  0  0  0  0  0  0  0  0  0  0  0
   -6.3490    8.6950   -1.8140 O   0  0  0  0  0  0  0  0  0  0  0  0
   -1.0847    7.5710   -1.7996 H   0  0  0  0  0  0  0  0  0  0  0  0
   -2.6139    8.2393   -2.4640 H   0  0  0  0  0  0  0  0  0  0  0  0
   -1.1218    9.2395   -2.4640 H   0  0  0  0  0  0  0  0  0  0  0  0
   -1.8561    8.2263    0.2040 H   0  0  0  0  0  0  0  0  0  0  0  0
   -3.6962   10.0134    0.4712 H   0  0  0  0  0  0  0  0  0  0  0  0
   -3.8277    9.9026   -1.3491 H   0  0  0  0  0  0  0  0  0  0  0  0
   -3.8676    7.2861   -0.0301 H   0  0  0  0  0  0  0  0  0  0  0  0
   -5.2260    8.3762    0.4733 H   0  0  0  0  0  0  0  0  0  0  0  0
   -4.2462    7.6100   -2.0808 H   0  0  0  0  0  0  0  0  0  0  0  0
   -6.7491    7.2104    0.4710 H   0  0  0  0  0  0  0  0  0  0  0  0
   -8.2969    7.4827   -0.3991 H   0  0  0  0  0  0  0  0  0  0  0  0
   -7.5411    5.8531   -0.3991 H   0  0  0  0  0  0  0  0  0  0  0  0
   -7.5679    5.6867   -2.6620 H   0  0  0  0  0  0  0  0  0  0  0  0
   -7.6471    7.2727   -3.5015 H   0  0  0  0  0  0  0  0  0  0  0  0
   -6.1169    6.3319   -3.5015 H   0  0  0  0  0  0  0  0  0  0  0  0
   -1.9982   10.9615    0.0530 H   0  0  0  0  0  0  0  0  0  0  0  0
   -0.5799   10.2931    1.8909 H   0  0  0  0  0  0  0  0  0  0  0  0
    0.0614    8.9016    0.9911 H   0  0  0  0  0  0  0  0  0  0  0  0
    1.4431   11.3608    1.4539 H   0  0  0  0  0  0  0  0  0  0  0  0
    1.9340   10.1624    0.2602 H   0  0  0  0  0  0  0  0  0  0  0  0
    0.0156   12.7860    1.2891 H   0  0  0  0  0  0  0  0  0  0  0  0
    0.3962   13.8888   -0.0768 H   0  0  0  0  0  0  0  0  0  0  0  0
   -1.1386   12.9555   -0.0768 H   0  0  0  0  0  0  0  0  0  0  0  0
    2.2453   11.3562   -1.8253 H   0  0  0  0  0  0  0  0  0  0  0  0
    2.9672   12.7689    0.2053 H   0  0  0  0  0  0  0  0  0  0  0  0
    3.7576   12.9937   -1.4422 H   0  0  0  0  0  0  0  0  0  0  0  0
    3.2161   15.1945   -0.0995 H   0  0  0  0  0  0  0  0  0  0  0  0
   -0.1836   14.4418   -2.1433 H   0  0  0  0  0  0  0  0  0  0  0  0
    1.8153   15.3686   -4.2979 H   0  0  0  0  0  0  0  0  0  0  0  0
    0.0871   14.8615   -4.5568 H   0  0  0  0  0  0  0  0  0  0  0  0
    0.3580   17.3205   -4.6045 H   0  0  0  0  0  0  0  0  0  0  0  0
   -0.6953   16.7528   -3.2504 H   0  0  0  0  0  0  0  0  0  0  0  0
    0.7648   18.4689   -2.4245 H   0  0  0  0  0  0  0  0  0  0  0  0
    2.8570   16.7700   -3.4460 H   0  0  0  0  0  0  0  0  0  0  0  0
    0.1822   16.8234    0.5597 H   0  0  0  0  0  0  0  0  0  0  0  0
   -0.5186   17.7704   -0.7963 H   0  0  0  0  0  0  0  0  0  0  0  0
   -0.6383   15.9781   -0.7963 H   0  0  0  0  0  0  0  0  0  0  0  0
    2.1540   17.3339    0.6537 H   0  0  0  0  0  0  0  0  0  0  0  0
    3.3893   17.1187   -0.6325 H   0  0  0  0  0  0  0  0  0  0  0  0
    2.3368   18.5743   -0.6325 H   0  0  0  0  0  0  0  0  0  0  0  0
    3.3158   12.8081   -3.3706 H   0  0  0  0  0  0  0  0  0  0  0  0
    2.1784   12.0058   -4.5061 H   0  0  0  0  0  0  0  0  0  0  0  0
    2.3346   13.7953   -4.5061 H   0  0  0  0  0  0  0  0  0  0  0  0
   -0.5812   12.9636   -4.0484 H   0  0  0  0  0  0  0  0  0  0  0  0
    0.3797   11.3817   -3.9575 H   0  0  0  0  0  0  0  0  0  0  0  0
   -1.5945   12.4645   -1.9286 H   0  0  0  0  0  0  0  0  0  0  0  0
   -1.7358   10.9906   -2.9652 H   0  0  0  0  0  0  0  0  0  0  0  0
    0.7889    8.9287   -1.3139 H   0  0  0  0  0  0  0  0  0  0  0  0
   -0.3476    9.0865   -2.6960 H   0  0  0  0  0  0  0  0  0  0  0  0
    1.1988   10.0004   -2.6960 H   0  0  0  0  0  0  0  0  0  0  0  0
  1 12  1  0  0  0  0
  1 33  1  0  0  0  0
  1 34  1  0  0  0  0
  1 35  1  0  0  0  0
  2  3  1  0  0  0  0
  2 48  1  0  0  0  0
  3  4  1  0  0  0  0
  3 49  1  0  0  0  0
  3 50  1  0  0  0  0
  4  5  1  0  0  0  0
  4 51  1  0  0  0  0
  4 52  1  0  0  0  0
  5  6  1  0  0  0  0
  5  7  1  0  0  0  0
  6 53  1  0  0  0  0
  6 54  1  0  0  0  0
  6 55  1  0  0  0  0
  7  8  1  0  0  0  0
  7 56  1  0  0  0  0
  8  9  1  0  0  0  0
  8 57  1  0  0  0  0
  8 58  1  0  0  0  0
  9 10  2  0  0  0  0
  9 59  1  0  0  0  0
 10 11  1  0  0  0  0
 11 13  1  0  0  0  0
 11 19  1  0  0  0  0
 11 60  1  0  0  0  0
  2 12  1  0  0  0  0
 12 22  1  0  0  0  0
 12 36  1  0  0  0  0
 13 14  1  0  0  0  0
 13 61  1  0  0  0  0
 13 62  1  0  0  0  0
 14 15  1  0  0  0  0
 14 63  1  0  0  0  0
 14 64  1  0  0  0  0
 15 16  1  0  0  0  0
 15 31  1  0  0  0  0
 15 65  1  0  0  0  0
 10 16  1  0  0  0  0
 16 17  1  0  0  0  0
 16 18  1  0  0  0  0
 17 67  1  0  0  0  0
 17 68  1  0  0  0  0
 17 69  1  0  0  0  0
 18 70  1  0  0  0  0
 18 71  1  0  0  0  0
 18 72  1  0  0  0  0
  7 19  1  0  0  0  0
 19 20  1  0  0  0  0
 19 21  1  0  0  0  0
 20 73  1  0  0  0  0
 20 74  1  0  0  0  0
 20 75  1  0  0  0  0
 21 23  1  0  0  0  0
 21 76  1  0  0  0  0
 21 77  1  0  0  0  0
 22 26  1  0  0  0  0
 22 37  1  0  0  0  0
 22 38  1  0  0  0  0
 23 24  1  0  0  0  0
 23 78  1  0  0  0  0
 23 79  1  0  0  0  0
  2 24  1  0  0  0  0
  5 24  1  0  0  0  0
 24 25  1  0  0  0  0
 25 80  1  0  0  0  0
 25 81  1  0  0  0  0
 25 82  1  0  0  0  0
 26 27  1  0  0  0  0
 26 39  1  0  0  0  0
 26 40  1  0  0  0  0
 27 32  1  0  0  0  0
 27 41  1  0  0  0  0
 27 28  1  0  0  0  0
 28 29  1  0  0  0  0
 28 30  1  0  0  0  0
 29 42  1  0  0  0  0
 29 43  1  0  0  0  0
 29 44  1  0  0  0  0
 30 45  1  0  0  0  0
 30 46  1  0  0  0  0
 30 47  1  0  0  0  0
 31 66  1  0  0  0  0
 28 32  1  0  0  0  0
M  END
$$$$
