EPH_relaxed_0001_pdb2pqr_Repair_66_r2_0001_out
  PyMOL3.1          3D                             0

 82 86  0  0  1  0  0  0  0  0999 V2000
   -1.7340    8.5720   -1.8710 C   0  0  0  0  0  0  0  0  0  0  0  0
   -1.2530   10.3010   -0.1280 C   0  0  1  0  0  0  0  0  0  0  0  0
   -0.2320    9.9990    1.0010 C   0  0  0  0  0  0  0  0  0  0  0  0
    1.0420   10.8230    0.6840 C   0  0  0  0  0  0  0  0  0  0  0  0
    0.6010   11.8160   -0.4170 C   0  0  1  0  0  0  0  0  0  0  0  0
   -0.1100   12.9750    0.3500 C   0  0  0  0  0  0  0  0  0  0  0  0
    1.7300   12.3520   -1.3560 C   0  0  2  0  0  0  0  0  0  0  0  0
    2.8290   13.1700   -0.6550 C   0  0  0  0  0  0  0  0  0  0  0  0
    2.5800   14.6400   -0.5800 C   0  0  0  0  0  0  0  0  0  0  0  0
    1.6650   15.3160   -1.2980 C   0  0  0  0  0  0  0  0  0  0  0  0
    0.8270   14.6090   -2.3720 C   0  0  1  0  0  0  0  0  0  0  0  0
   -2.1120    9.0920   -0.4810 C   0  0  2  0  0  0  0  0  0  0  0  0
    0.8130   15.4670   -3.6650 C   0  0  0  0  0  0  0  0  0  0  0  0
    0.3500   16.8980   -3.4120 C   0  0  0  0  0  0  0  0  0  0  0  0
    1.2420   17.5860   -2.3820 C   0  0  2  0  0  0  0  0  0  0  0  0
    1.3410   16.8080   -1.0410 C   0  0  0  0  0  0  0  0  0  0  0  0
   -0.0110   16.8900   -0.2900 C   0  0  0  0  0  0  0  0  0  0  0  0
    2.3800   17.5340   -0.1430 C   0  0  0  0  0  0  0  0  0  0  0  0
    1.1990   13.0890   -2.6520 C   0  0  1  0  0  0  0  0  0  0  0  0
    2.3410   13.0070   -3.7110 C   0  0  0  0  0  0  0  0  0  0  0  0
   -0.0470   12.3640   -3.2850 C   0  0  0  0  0  0  0  0  0  0  0  0
   -3.6060    9.4610   -0.3850 C   0  0  0  0  0  0  0  0  0  0  0  0
   -1.0660   11.7500   -2.3050 C   0  0  0  0  0  0  0  0  0  0  0  0
   -0.3620   10.8930   -1.2490 C   0  0  2  0  0  0  0  0  0  0  0  0
    0.3440    9.7060   -1.9880 C   0  0  0  0  0  0  0  0  0  0  0  0
   -4.5280    8.2520   -0.2090 C   0  0  0  0  0  0  0  0  0  0  0  0
   -5.2370    7.9050   -1.4830 C   0  0  2  0  0  0  0  0  0  0  0  0
   -6.6640    7.3930   -1.5330 C   0  0  0  0  0  0  0  0  0  0  0  0
   -7.4680    7.1980   -0.2860 C   0  0  0  0  0  0  0  0  0  0  0  0
   -7.1070    6.6240   -2.7390 C   0  0  0  0  0  0  0  0  0  0  0  0
    2.5490   17.7510   -2.9410 O   0  0  0  0  0  0  0  0  0  0  0  0
   -6.3370    8.7640   -1.8090 O   0  0  0  0  0  0  0  0  0  0  0  0
   -1.0900    7.6861   -1.7684 H   0  0  0  0  0  0  0  0  0  0  0  0
   -2.6467    8.3001   -2.4215 H   0  0  0  0  0  0  0  0  0  0  0  0
   -1.1937    9.3563   -2.4215 H   0  0  0  0  0  0  0  0  0  0  0  0
   -1.9262    8.2805    0.2380 H   0  0  0  0  0  0  0  0  0  0  0  0
   -3.7436   10.1311    0.4764 H   0  0  0  0  0  0  0  0  0  0  0  0
   -3.8809    9.9393   -1.3367 H   0  0  0  0  0  0  0  0  0  0  0  0
   -3.9263    7.3884    0.1106 H   0  0  0  0  0  0  0  0  0  0  0  0
   -5.2858    8.5060    0.5468 H   0  0  0  0  0  0  0  0  0  0  0  0
   -4.3031    7.5320   -1.9288 H   0  0  0  0  0  0  0  0  0  0  0  0
   -6.8251    7.3539    0.5929 H   0  0  0  0  0  0  0  0  0  0  0  0
   -8.2966    7.9212   -0.2671 H   0  0  0  0  0  0  0  0  0  0  0  0
   -7.8732    6.1755   -0.2671 H   0  0  0  0  0  0  0  0  0  0  0  0
   -7.6324    5.7119   -2.4196 H   0  0  0  0  0  0  0  0  0  0  0  0
   -7.7852    7.2459   -3.3417 H   0  0  0  0  0  0  0  0  0  0  0  0
   -6.2288    6.3493   -3.3417 H   0  0  0  0  0  0  0  0  0  0  0  0
   -2.0440   11.0165    0.1408 H   0  0  0  0  0  0  0  0  0  0  0  0
   -0.6448   10.2995    1.9753 H   0  0  0  0  0  0  0  0  0  0  0  0
   -0.0048    8.9239    1.0508 H   0  0  0  0  0  0  0  0  0  0  0  0
    1.3876   11.3628    1.5779 H   0  0  0  0  0  0  0  0  0  0  0  0
    1.8799   10.1877    0.3612 H   0  0  0  0  0  0  0  0  0  0  0  0
   -0.0106   12.8129    1.4334 H   0  0  0  0  0  0  0  0  0  0  0  0
    0.3554   13.9340    0.0785 H   0  0  0  0  0  0  0  0  0  0  0  0
   -1.1758   12.9947    0.0785 H   0  0  0  0  0  0  0  0  0  0  0  0
    2.2169   11.4247   -1.6923 H   0  0  0  0  0  0  0  0  0  0  0  0
    2.9327   12.7900    0.3721 H   0  0  0  0  0  0  0  0  0  0  0  0
    3.7363   13.0458   -1.2644 H   0  0  0  0  0  0  0  0  0  0  0  0
    3.1972   15.2197    0.1221 H   0  0  0  0  0  0  0  0  0  0  0  0
   -0.1914   14.5332   -1.9631 H   0  0  0  0  0  0  0  0  0  0  0  0
    1.8308   15.4940   -4.0813 H   0  0  0  0  0  0  0  0  0  0  0  0
    0.1016   15.0046   -4.3650 H   0  0  0  0  0  0  0  0  0  0  0  0
    0.3895   17.4613   -4.3560 H   0  0  0  0  0  0  0  0  0  0  0  0
   -0.6786   16.8706   -3.0232 H   0  0  0  0  0  0  0  0  0  0  0  0
    0.7853   18.5587   -2.1468 H   0  0  0  0  0  0  0  0  0  0  0  0
    2.9210   16.8640   -3.0860 H   0  0  0  0  0  0  0  0  0  0  0  0
    0.1709   16.8790    0.7948 H   0  0  0  0  0  0  0  0  0  0  0  0
   -0.5277   17.8211   -0.5657 H   0  0  0  0  0  0  0  0  0  0  0  0
   -0.6364   16.0281   -0.5657 H   0  0  0  0  0  0  0  0  0  0  0  0
    2.1338   17.3620    0.9152 H   0  0  0  0  0  0  0  0  0  0  0  0
    3.3854   17.1408   -0.3541 H   0  0  0  0  0  0  0  0  0  0  0  0
    2.3565   18.6133   -0.3541 H   0  0  0  0  0  0  0  0  0  0  0  0
    3.3119   12.9373   -3.1986 H   0  0  0  0  0  0  0  0  0  0  0  0
    2.1940   12.1171   -4.3407 H   0  0  0  0  0  0  0  0  0  0  0  0
    2.3226   13.9088   -4.3407 H   0  0  0  0  0  0  0  0  0  0  0  0
   -0.5818   13.1002   -3.9031 H   0  0  0  0  0  0  0  0  0  0  0  0
    0.3684   11.5103   -3.8405 H   0  0  0  0  0  0  0  0  0  0  0  0
   -1.6159   12.5598   -1.8032 H   0  0  0  0  0  0  0  0  0  0  0  0
   -1.7573   11.1099   -2.8727 H   0  0  0  0  0  0  0  0  0  0  0  0
    0.7594    9.0076   -1.2466 H   0  0  0  0  0  0  0  0  0  0  0  0
   -0.3877    9.1793   -2.6182 H   0  0  0  0  0  0  0  0  0  0  0  0
    1.1561   10.0975   -2.6182 H   0  0  0  0  0  0  0  0  0  0  0  0
  1 12  1  0  0  0  0
  1 33  1  0  0  0  0
  1 34  1  0  0  0  0
  1 35  1  0  0  0  0
  2  3  1  0  0  0  0
  2 48  1  0  0  0  0
  3  4  1  0  0  0  0
  3 49  1  0  0  0  0
  3 50  1  0  0  0  0
  4  5  1  0  0  0  0
  4 51  1  0  0  0  0
  4 52  1  0  0  0  0
  5  6  1  0  0  0  0
  5  7  1  0  0  0  0
  6 53  1  0  0  0  0
  6 54  1  0  0  0  0
  6 55  1  0  0  0  0
  7  8  1  0  0  0  0
  7 56  1  0  0  0  0
  8  9  1  0  0  0  0
  8 57  1  0  0  0  0
  8 58  1  0  0  0  0
  9 10  2  0  0  0  0
  9 59  1  0  0  0  0
 10 11  1  0  0  0  0
 11 13  1  0  0  0  0
 11 19  1  0  0  0  0
 11 60  1  0  0  0  0
  2 12  1  0  0  0  0
 12 22  1  0  0  0  0
 12 36  1  0  0  0  0
 13 14  1  0  0  0  0
 13 61  1  0  0  0  0
 13 62  1  0  0  0  0
 14 15  1  0  0  0  0
 14 63  1  0  0  0  0
 14 64  1  0  0  0  0
 15 16  1  0  0  0  0
 15 31  1  0  0  0  0
 15 65  1  0  0  0  0
 10 16  1  0  0  0  0
 16 17  1  0  0  0  0
 16 18  1  0  0  0  0
 17 67  1  0  0  0  0
 17 68  1  0  0  0  0
 17 69  1  0  0  0  0
 18 70  1  0  0  0  0
 18 71  1  0  0  0  0
 18 72  1  0  0  0  0
  7 19  1  0  0  0  0
 19 20  1  0  0  0  0
 19 21  1  0  0  0  0
 20 73  1  0  0  0  0
 20 74  1  0  0  0  0
 20 75  1  0  0  0  0
 21 23  1  0  0  0  0
 21 76  1  0  0  0  0
 21 77  1  0  0  0  0
 22 26  1  0  0  0  0
 22 37  1  0  0  0  0
 22 38  1  0  0  0  0
 23 24  1  0  0  0  0
 23 78  1  0  0  0  0
 23 79  1  0  0  0  0
  2 24  1  0  0  0  0
  5 24  1  0  0  0  0
 24 25  1  0  0  0  0
 25 80  1  0  0  0  0
 25 81  1  0  0  0  0
 25 82  1  0  0  0  0
 26 27  1  0  0  0  0
 26 39  1  0  0  0  0
 26 40  1  0  0  0  0
 27 32  1  0  0  0  0
 27 41  1  0  0  0  0
 27 28  1  0  0  0  0
 28 29  1  0  0  0  0
 28 30  1  0  0  0  0
 29 42  1  0  0  0  0
 29 43  1  0  0  0  0
 29 44  1  0  0  0  0
 30 45  1  0  0  0  0
 30 46  1  0  0  0  0
 30 47  1  0  0  0  0
 31 66  1  0  0  0  0
 28 32  1  0  0  0  0
M  END
$$$$
