EPH_relaxed_0001_pdb2pqr_Repair_14_r2_0001_out
  PyMOL3.1          3D                             0

 82 86  0  0  1  0  0  0  0  0999 V2000
   -1.7060    8.5900   -1.8990 C   0  0  0  0  0  0  0  0  0  0  0  0
   -1.2100   10.3100   -0.1520 C   0  0  1  0  0  0  0  0  0  0  0  0
   -0.1660    9.9940    0.9530 C   0  0  0  0  0  0  0  0  0  0  0  0
    1.1010   10.8230    0.6220 C   0  0  0  0  0  0  0  0  0  0  0  0
    0.6380   11.8310   -0.4560 C   0  0  1  0  0  0  0  0  0  0  0  0
   -0.0590   12.9780    0.3410 C   0  0  0  0  0  0  0  0  0  0  0  0
    1.7470   12.3810   -1.4090 C   0  0  2  0  0  0  0  0  0  0  0  0
    2.8590   13.1900   -0.7180 C   0  0  0  0  0  0  0  0  0  0  0  0
    2.6110   14.6590   -0.6180 C   0  0  0  0  0  0  0  0  0  0  0  0
    1.6810   15.3440   -1.3090 C   0  0  0  0  0  0  0  0  0  0  0  0
    0.8240   14.6520   -2.3760 C   0  0  1  0  0  0  0  0  0  0  0  0
   -2.0740    9.1060   -0.5050 C   0  0  2  0  0  0  0  0  0  0  0  0
    0.7830   15.5270   -3.6560 C   0  0  0  0  0  0  0  0  0  0  0  0
    0.3240   16.9540   -3.3740 C   0  0  0  0  0  0  0  0  0  0  0  0
    1.2360   17.6290   -2.3530 C   0  0  2  0  0  0  0  0  0  0  0  0
    1.3620   16.8320   -1.0240 C   0  0  0  0  0  0  0  0  0  0  0  0
    0.0240   16.9020   -0.2460 C   0  0  0  0  0  0  0  0  0  0  0  0
    2.4170   17.5470   -0.1370 C   0  0  0  0  0  0  0  0  0  0  0  0
    1.1910   13.1360   -2.6840 C   0  0  1  0  0  0  0  0  0  0  0  0
    2.3120   13.0690   -3.7660 C   0  0  0  0  0  0  0  0  0  0  0  0
   -0.0670   12.4180   -3.3030 C   0  0  0  0  0  0  0  0  0  0  0  0
   -3.5660    9.4790   -0.4000 C   0  0  0  0  0  0  0  0  0  0  0  0
   -1.0660   11.7900   -2.3120 C   0  0  0  0  0  0  0  0  0  0  0  0
   -0.3410   10.9190   -1.2810 C   0  0  2  0  0  0  0  0  0  0  0  0
    0.3510    9.7430   -2.0510 C   0  0  0  0  0  0  0  0  0  0  0  0
   -4.4950    8.2700   -0.2670 C   0  0  0  0  0  0  0  0  0  0  0  0
   -5.2040    7.9710   -1.5530 C   0  0  2  0  0  0  0  0  0  0  0  0
   -6.5870    7.3510   -1.6220 C   0  0  0  0  0  0  0  0  0  0  0  0
   -7.3430    6.9910   -0.3810 C   0  0  0  0  0  0  0  0  0  0  0  0
   -6.9960    6.6490   -2.8800 C   0  0  0  0  0  0  0  0  0  0  0  0
    2.5310   17.8020   -2.9340 O   0  0  0  0  0  0  0  0  0  0  0  0
   -6.3770    8.7620   -1.7880 O   0  0  0  0  0  0  0  0  0  0  0  0
   -1.0697    7.6978   -1.8036 H   0  0  0  0  0  0  0  0  0  0  0  0
   -2.6232    8.3293   -2.4474 H   0  0  0  0  0  0  0  0  0  0  0  0
   -1.1607    9.3723   -2.4474 H   0  0  0  0  0  0  0  0  0  0  0  0
   -1.8861    8.2915    0.2101 H   0  0  0  0  0  0  0  0  0  0  0  0
   -3.7022   10.1203    0.4832 H   0  0  0  0  0  0  0  0  0  0  0  0
   -3.8360    9.9902   -1.3358 H   0  0  0  0  0  0  0  0  0  0  0  0
   -3.8986    7.3925    0.0235 H   0  0  0  0  0  0  0  0  0  0  0  0
   -5.2526    8.5022    0.4960 H   0  0  0  0  0  0  0  0  0  0  0  0
   -4.2541    7.7121   -2.0435 H   0  0  0  0  0  0  0  0  0  0  0  0
   -6.7520    7.2724    0.5030 H   0  0  0  0  0  0  0  0  0  0  0  0
   -8.3024    7.5289   -0.3671 H   0  0  0  0  0  0  0  0  0  0  0  0
   -7.5301    5.9071   -0.3671 H   0  0  0  0  0  0  0  0  0  0  0  0
   -7.5347    5.7244   -2.6254 H   0  0  0  0  0  0  0  0  0  0  0  0
   -7.6529    7.3056   -3.4693 H   0  0  0  0  0  0  0  0  0  0  0  0
   -6.1008    6.4014   -3.4693 H   0  0  0  0  0  0  0  0  0  0  0  0
   -1.9971   11.0200    0.1419 H   0  0  0  0  0  0  0  0  0  0  0  0
   -0.5596   10.2813    1.9392 H   0  0  0  0  0  0  0  0  0  0  0  0
    0.0629    8.9185    0.9839 H   0  0  0  0  0  0  0  0  0  0  0  0
    1.4643   11.3505    1.5163 H   0  0  0  0  0  0  0  0  0  0  0  0
    1.9324   10.1926    0.2736 H   0  0  0  0  0  0  0  0  0  0  0  0
    0.0523   12.7949    1.4199 H   0  0  0  0  0  0  0  0  0  0  0  0
    0.4073   13.9401    0.0824 H   0  0  0  0  0  0  0  0  0  0  0  0
   -1.1278   13.0073    0.0824 H   0  0  0  0  0  0  0  0  0  0  0  0
    2.2270   11.4587   -1.7682 H   0  0  0  0  0  0  0  0  0  0  0  0
    2.9825   12.7960    0.3016 H   0  0  0  0  0  0  0  0  0  0  0  0
    3.7544   13.0747   -1.3464 H   0  0  0  0  0  0  0  0  0  0  0  0
    3.2418   15.2297    0.0794 H   0  0  0  0  0  0  0  0  0  0  0  0
   -0.1861   14.5701   -1.9482 H   0  0  0  0  0  0  0  0  0  0  0  0
    1.7921   15.5609   -4.0926 H   0  0  0  0  0  0  0  0  0  0  0  0
    0.0579   15.0734   -4.3477 H   0  0  0  0  0  0  0  0  0  0  0  0
    0.3438   17.5302   -4.3108 H   0  0  0  0  0  0  0  0  0  0  0  0
   -0.6964   16.9200   -2.9647 H   0  0  0  0  0  0  0  0  0  0  0  0
    0.7835   18.5983   -2.0967 H   0  0  0  0  0  0  0  0  0  0  0  0
    3.0050   18.4670   -2.4050 H   0  0  0  0  0  0  0  0  0  0  0  0
    0.2274   16.8914    0.8350 H   0  0  0  0  0  0  0  0  0  0  0  0
   -0.5058   17.8291   -0.5103 H   0  0  0  0  0  0  0  0  0  0  0  0
   -0.5996   16.0353   -0.5103 H   0  0  0  0  0  0  0  0  0  0  0  0
    2.1757   17.3835    0.9237 H   0  0  0  0  0  0  0  0  0  0  0  0
    3.4152   17.1385   -0.3532 H   0  0  0  0  0  0  0  0  0  0  0  0
    2.4075   18.6255   -0.3532 H   0  0  0  0  0  0  0  0  0  0  0  0
    3.2939   13.0103   -3.2736 H   0  0  0  0  0  0  0  0  0  0  0  0
    2.1628   12.1782   -4.3938 H   0  0  0  0  0  0  0  0  0  0  0  0
    2.2700   13.9713   -4.3938 H   0  0  0  0  0  0  0  0  0  0  0  0
   -0.6142   13.1619   -3.9007 H   0  0  0  0  0  0  0  0  0  0  0  0
    0.3382   11.5724   -3.8781 H   0  0  0  0  0  0  0  0  0  0  0  0
   -1.6066   12.5925   -1.7887 H   0  0  0  0  0  0  0  0  0  0  0  0
   -1.7676   11.1569   -2.8749 H   0  0  0  0  0  0  0  0  0  0  0  0
    0.7714    9.0285   -1.3280 H   0  0  0  0  0  0  0  0  0  0  0  0
   -0.3904    9.2319   -2.6828 H   0  0  0  0  0  0  0  0  0  0  0  0
    1.1578   10.1429   -2.6828 H   0  0  0  0  0  0  0  0  0  0  0  0
  1 12  1  0  0  0  0
  1 33  1  0  0  0  0
  1 34  1  0  0  0  0
  1 35  1  0  0  0  0
  2  3  1  0  0  0  0
  2 48  1  0  0  0  0
  3  4  1  0  0  0  0
  3 49  1  0  0  0  0
  3 50  1  0  0  0  0
  4  5  1  0  0  0  0
  4 51  1  0  0  0  0
  4 52  1  0  0  0  0
  5  6  1  0  0  0  0
  5  7  1  0  0  0  0
  6 53  1  0  0  0  0
  6 54  1  0  0  0  0
  6 55  1  0  0  0  0
  7  8  1  0  0  0  0
  7 56  1  0  0  0  0
  8  9  1  0  0  0  0
  8 57  1  0  0  0  0
  8 58  1  0  0  0  0
  9 10  2  0  0  0  0
  9 59  1  0  0  0  0
 10 11  1  0  0  0  0
 11 13  1  0  0  0  0
 11 19  1  0  0  0  0
 11 60  1  0  0  0  0
  2 12  1  0  0  0  0
 12 22  1  0  0  0  0
 12 36  1  0  0  0  0
 13 14  1  0  0  0  0
 13 61  1  0  0  0  0
 13 62  1  0  0  0  0
 14 15  1  0  0  0  0
 14 63  1  0  0  0  0
 14 64  1  0  0  0  0
 15 16  1  0  0  0  0
 15 31  1  0  0  0  0
 15 65  1  0  0  0  0
 10 16  1  0  0  0  0
 16 17  1  0  0  0  0
 16 18  1  0  0  0  0
 17 67  1  0  0  0  0
 17 68  1  0  0  0  0
 17 69  1  0  0  0  0
 18 70  1  0  0  0  0
 18 71  1  0  0  0  0
 18 72  1  0  0  0  0
  7 19  1  0  0  0  0
 19 20  1  0  0  0  0
 19 21  1  0  0  0  0
 20 73  1  0  0  0  0
 20 74  1  0  0  0  0
 20 75  1  0  0  0  0
 21 23  1  0  0  0  0
 21 76  1  0  0  0  0
 21 77  1  0  0  0  0
 22 26  1  0  0  0  0
 22 37  1  0  0  0  0
 22 38  1  0  0  0  0
 23 24  1  0  0  0  0
 23 78  1  0  0  0  0
 23 79  1  0  0  0  0
  2 24  1  0  0  0  0
  5 24  1  0  0  0  0
 24 25  1  0  0  0  0
 25 80  1  0  0  0  0
 25 81  1  0  0  0  0
 25 82  1  0  0  0  0
 26 27  1  0  0  0  0
 26 39  1  0  0  0  0
 26 40  1  0  0  0  0
 27 32  1  0  0  0  0
 27 41  1  0  0  0  0
 27 28  1  0  0  0  0
 28 29  1  0  0  0  0
 28 30  1  0  0  0  0
 29 42  1  0  0  0  0
 29 43  1  0  0  0  0
 29 44  1  0  0  0  0
 30 45  1  0  0  0  0
 30 46  1  0  0  0  0
 30 47  1  0  0  0  0
 31 66  1  0  0  0  0
 28 32  1  0  0  0  0
M  END
$$$$
