EPH_relaxed_0001_pdb2pqr_Repair_188_r2_0001_out
  PyMOL3.1          3D                             0

 82 86  0  0  1  0  0  0  0  0999 V2000
   -1.6800    8.6560   -1.8930 C   0  0  0  0  0  0  0  0  0  0  0  0
   -1.2550   10.3740   -0.1250 C   0  0  1  0  0  0  0  0  0  0  0  0
   -0.2650   10.1030    1.0390 C   0  0  0  0  0  0  0  0  0  0  0  0
    1.0010   10.9530    0.7570 C   0  0  0  0  0  0  0  0  0  0  0  0
    0.5730   11.9280   -0.3650 C   0  0  1  0  0  0  0  0  0  0  0  0
   -0.1880   13.0760    0.3690 C   0  0  0  0  0  0  0  0  0  0  0  0
    1.7190   12.4830   -1.2720 C   0  0  2  0  0  0  0  0  0  0  0  0
    2.7760   13.3300   -0.5420 C   0  0  0  0  0  0  0  0  0  0  0  0
    2.4930   14.7950   -0.4860 C   0  0  0  0  0  0  0  0  0  0  0  0
    1.5860   15.4450   -1.2390 C   0  0  0  0  0  0  0  0  0  0  0  0
    0.8000   14.7120   -2.3340 C   0  0  1  0  0  0  0  0  0  0  0  0
   -2.0750    9.1440   -0.4960 C   0  0  2  0  0  0  0  0  0  0  0  0
    0.8080   15.5600   -3.6330 C   0  0  0  0  0  0  0  0  0  0  0  0
    0.3050   16.9830   -3.4060 C   0  0  0  0  0  0  0  0  0  0  0  0
    1.1480   17.6980   -2.3530 C   0  0  2  0  0  0  0  0  0  0  0  0
    1.2210   16.9320   -1.0030 C   0  0  0  0  0  0  0  0  0  0  0  0
   -0.1560   16.9880   -0.2970 C   0  0  0  0  0  0  0  0  0  0  0  0
    2.2140   17.6870   -0.0790 C   0  0  0  0  0  0  0  0  0  0  0  0
    1.2140   13.2000   -2.5900 C   0  0  1  0  0  0  0  0  0  0  0  0
    2.3910   13.1350   -3.6110 C   0  0  0  0  0  0  0  0  0  0  0  0
    0.0060   12.4420   -3.2570 C   0  0  0  0  0  0  0  0  0  0  0  0
   -3.5800    9.4640   -0.3960 C   0  0  0  0  0  0  0  0  0  0  0  0
   -1.0300   11.8120   -2.3060 C   0  0  0  0  0  0  0  0  0  0  0  0
   -0.3420   10.9780   -1.2210 C   0  0  2  0  0  0  0  0  0  0  0  0
    0.4140    9.8020   -1.9290 C   0  0  0  0  0  0  0  0  0  0  0  0
   -4.4670    8.2210   -0.2810 C   0  0  0  0  0  0  0  0  0  0  0  0
   -5.1920    7.9370   -1.5610 C   0  0  2  0  0  0  0  0  0  0  0  0
   -6.5880    7.3450   -1.6180 C   0  0  0  0  0  0  0  0  0  0  0  0
   -7.3410    7.0010   -0.3710 C   0  0  0  0  0  0  0  0  0  0  0  0
   -7.0210    6.6520   -2.8720 C   0  0  0  0  0  0  0  0  0  0  0  0
    2.4690   17.8880   -2.8710 O   0  0  0  0  0  0  0  0  0  0  0  0
   -6.3500    8.7520   -1.7870 O   0  0  0  0  0  0  0  0  0  0  0  0
   -0.9903    7.8039   -1.8023 H   0  0  0  0  0  0  0  0  0  0  0  0
   -2.5811    8.3417   -2.4400 H   0  0  0  0  0  0  0  0  0  0  0  0
   -1.1849    9.4719   -2.4400 H   0  0  0  0  0  0  0  0  0  0  0  0
   -1.8639    8.3286    0.2115 H   0  0  0  0  0  0  0  0  0  0  0  0
   -3.7435   10.0908    0.4930 H   0  0  0  0  0  0  0  0  0  0  0  0
   -3.8626    9.9757   -1.3278 H   0  0  0  0  0  0  0  0  0  0  0  0
   -3.8368    7.3555   -0.0287 H   0  0  0  0  0  0  0  0  0  0  0  0
   -5.2158    8.4055    0.5034 H   0  0  0  0  0  0  0  0  0  0  0  0
   -4.2517    7.6589   -2.0594 H   0  0  0  0  0  0  0  0  0  0  0  0
   -6.7396    7.2758    0.5081 H   0  0  0  0  0  0  0  0  0  0  0  0
   -8.2916    7.5541   -0.3523 H   0  0  0  0  0  0  0  0  0  0  0  0
   -7.5452    5.9203   -0.3523 H   0  0  0  0  0  0  0  0  0  0  0  0
   -7.5875    5.7454   -2.6130 H   0  0  0  0  0  0  0  0  0  0  0  0
   -7.6586    7.3266   -3.4623 H   0  0  0  0  0  0  0  0  0  0  0  0
   -6.1352    6.3748   -3.4623 H   0  0  0  0  0  0  0  0  0  0  0  0
   -2.0699   11.0736    0.1125 H   0  0  0  0  0  0  0  0  0  0  0  0
   -0.7159   10.4014    1.9969 H   0  0  0  0  0  0  0  0  0  0  0  0
   -0.0160    9.0336    1.1047 H   0  0  0  0  0  0  0  0  0  0  0  0
    1.3058   11.5065    1.6574 H   0  0  0  0  0  0  0  0  0  0  0  0
    1.8630   10.3345    0.4665 H   0  0  0  0  0  0  0  0  0  0  0  0
   -0.0973   12.9392    1.4567 H   0  0  0  0  0  0  0  0  0  0  0  0
    0.2471   14.0452    0.0838 H   0  0  0  0  0  0  0  0  0  0  0  0
   -1.2501   13.0527    0.0838 H   0  0  0  0  0  0  0  0  0  0  0  0
    2.2362   11.5645   -1.5866 H   0  0  0  0  0  0  0  0  0  0  0  0
    2.8543   12.9594    0.4907 H   0  0  0  0  0  0  0  0  0  0  0  0
    3.7050   13.2218   -1.1210 H   0  0  0  0  0  0  0  0  0  0  0  0
    3.0745   15.3934    0.2308 H   0  0  0  0  0  0  0  0  0  0  0  0
   -0.2290   14.6161   -1.9573 H   0  0  0  0  0  0  0  0  0  0  0  0
    1.8377   15.6070   -4.0171 H   0  0  0  0  0  0  0  0  0  0  0  0
    0.1296   15.0767   -4.3515 H   0  0  0  0  0  0  0  0  0  0  0  0
    0.3625   17.5405   -4.3525 H   0  0  0  0  0  0  0  0  0  0  0  0
   -0.7348   16.9354   -3.0503 H   0  0  0  0  0  0  0  0  0  0  0  0
    0.6623   18.6618   -2.1404 H   0  0  0  0  0  0  0  0  0  0  0  0
    2.9270   18.5140   -2.2860 H   0  0  0  0  0  0  0  0  0  0  0  0
   -0.0096   16.9820    0.7932 H   0  0  0  0  0  0  0  0  0  0  0  0
   -0.6818   17.9083   -0.5913 H   0  0  0  0  0  0  0  0  0  0  0  0
   -0.7548   16.1135   -0.5913 H   0  0  0  0  0  0  0  0  0  0  0  0
    1.9572   17.4917    0.9726 H   0  0  0  0  0  0  0  0  0  0  0  0
    3.2378   17.3372   -0.2774 H   0  0  0  0  0  0  0  0  0  0  0  0
    2.1506   18.7671   -0.2774 H   0  0  0  0  0  0  0  0  0  0  0  0
    3.3457   13.0823   -3.0671 H   0  0  0  0  0  0  0  0  0  0  0  0
    2.2792   12.2417   -4.2430 H   0  0  0  0  0  0  0  0  0  0  0  0
    2.3783   14.0352   -4.2430 H   0  0  0  0  0  0  0  0  0  0  0  0
   -0.5249   13.1612   -3.8980 H   0  0  0  0  0  0  0  0  0  0  0  0
    0.4586   11.5939   -3.7918 H   0  0  0  0  0  0  0  0  0  0  0  0
   -1.6138   12.6127   -1.8284 H   0  0  0  0  0  0  0  0  0  0  0  0
   -1.6878   11.1525   -2.8911 H   0  0  0  0  0  0  0  0  0  0  0  0
    0.8443    9.1327   -1.1694 H   0  0  0  0  0  0  0  0  0  0  0  0
   -0.2913    9.2382   -2.5573 H   0  0  0  0  0  0  0  0  0  0  0  0
    1.2197   10.2096   -2.5573 H   0  0  0  0  0  0  0  0  0  0  0  0
  1 12  1  0  0  0  0
  1 33  1  0  0  0  0
  1 34  1  0  0  0  0
  1 35  1  0  0  0  0
  2  3  1  0  0  0  0
  2 48  1  0  0  0  0
  3  4  1  0  0  0  0
  3 49  1  0  0  0  0
  3 50  1  0  0  0  0
  4  5  1  0  0  0  0
  4 51  1  0  0  0  0
  4 52  1  0  0  0  0
  5  6  1  0  0  0  0
  5  7  1  0  0  0  0
  6 53  1  0  0  0  0
  6 54  1  0  0  0  0
  6 55  1  0  0  0  0
  7  8  1  0  0  0  0
  7 56  1  0  0  0  0
  8  9  1  0  0  0  0
  8 57  1  0  0  0  0
  8 58  1  0  0  0  0
  9 10  2  0  0  0  0
  9 59  1  0  0  0  0
 10 11  1  0  0  0  0
 11 13  1  0  0  0  0
 11 19  1  0  0  0  0
 11 60  1  0  0  0  0
  2 12  1  0  0  0  0
 12 22  1  0  0  0  0
 12 36  1  0  0  0  0
 13 14  1  0  0  0  0
 13 61  1  0  0  0  0
 13 62  1  0  0  0  0
 14 15  1  0  0  0  0
 14 63  1  0  0  0  0
 14 64  1  0  0  0  0
 15 16  1  0  0  0  0
 15 31  1  0  0  0  0
 15 65  1  0  0  0  0
 10 16  1  0  0  0  0
 16 17  1  0  0  0  0
 16 18  1  0  0  0  0
 17 67  1  0  0  0  0
 17 68  1  0  0  0  0
 17 69  1  0  0  0  0
 18 70  1  0  0  0  0
 18 71  1  0  0  0  0
 18 72  1  0  0  0  0
  7 19  1  0  0  0  0
 19 20  1  0  0  0  0
 19 21  1  0  0  0  0
 20 73  1  0  0  0  0
 20 74  1  0  0  0  0
 20 75  1  0  0  0  0
 21 23  1  0  0  0  0
 21 76  1  0  0  0  0
 21 77  1  0  0  0  0
 22 26  1  0  0  0  0
 22 37  1  0  0  0  0
 22 38  1  0  0  0  0
 23 24  1  0  0  0  0
 23 78  1  0  0  0  0
 23 79  1  0  0  0  0
  2 24  1  0  0  0  0
  5 24  1  0  0  0  0
 24 25  1  0  0  0  0
 25 80  1  0  0  0  0
 25 81  1  0  0  0  0
 25 82  1  0  0  0  0
 26 27  1  0  0  0  0
 26 39  1  0  0  0  0
 26 40  1  0  0  0  0
 27 32  1  0  0  0  0
 27 41  1  0  0  0  0
 27 28  1  0  0  0  0
 28 29  1  0  0  0  0
 28 30  1  0  0  0  0
 29 42  1  0  0  0  0
 29 43  1  0  0  0  0
 29 44  1  0  0  0  0
 30 45  1  0  0  0  0
 30 46  1  0  0  0  0
 30 47  1  0  0  0  0
 31 66  1  0  0  0  0
 28 32  1  0  0  0  0
M  END
$$$$
