EPH_relaxed_0001_pdb2pqr_Repair_131_r2_0001_out
  PyMOL3.1          3D                             0

 82 86  0  0  1  0  0  0  0  0999 V2000
   -1.2820    8.3920   -1.3540 C   0  0  0  0  0  0  0  0  0  0  0  0
   -1.0460   10.4720    0.0150 C   0  0  1  0  0  0  0  0  0  0  0  0
    0.0740   10.1550    1.0410 C   0  0  0  0  0  0  0  0  0  0  0  0
    1.3130   10.9880    0.6230 C   0  0  0  0  0  0  0  0  0  0  0  0
    0.7710   11.9970   -0.4160 C   0  0  1  0  0  0  0  0  0  0  0  0
    0.1310   13.1410    0.4320 C   0  0  0  0  0  0  0  0  0  0  0  0
    1.8090   12.5530   -1.4450 C   0  0  2  0  0  0  0  0  0  0  0  0
    2.9660   13.3620   -0.8330 C   0  0  0  0  0  0  0  0  0  0  0  0
    2.7230   14.8300   -0.7110 C   0  0  0  0  0  0  0  0  0  0  0  0
    1.7440   15.5150   -1.3310 C   0  0  0  0  0  0  0  0  0  0  0  0
    0.8140   14.8240   -2.3360 C   0  0  1  0  0  0  0  0  0  0  0  0
   -1.9320    9.2670   -0.2790 C   0  0  2  0  0  0  0  0  0  0  0  0
    0.6800   15.7030   -3.6070 C   0  0  0  0  0  0  0  0  0  0  0  0
    0.2390   17.1280   -3.2890 C   0  0  0  0  0  0  0  0  0  0  0  0
    1.2210   17.8020   -2.3340 C   0  0  2  0  0  0  0  0  0  0  0  0
    1.4430   17.0020   -1.0200 C   0  0  0  0  0  0  0  0  0  0  0  0
    0.1650   17.0670   -0.1480 C   0  0  0  0  0  0  0  0  0  0  0  0
    2.5580   17.7160   -0.2090 C   0  0  0  0  0  0  0  0  0  0  0  0
    1.1600   13.3100   -2.6740 C   0  0  1  0  0  0  0  0  0  0  0  0
    2.2010   13.2490   -3.8340 C   0  0  0  0  0  0  0  0  0  0  0  0
   -0.1370   12.5920   -3.2030 C   0  0  0  0  0  0  0  0  0  0  0  0
   -3.3430    9.7370   -0.6860 C   0  0  0  0  0  0  0  0  0  0  0  0
   -1.0610   11.9590   -2.1450 C   0  0  0  0  0  0  0  0  0  0  0  0
   -0.2630   11.0860   -1.1720 C   0  0  2  0  0  0  0  0  0  0  0  0
    0.3750    9.9130   -1.9930 C   0  0  0  0  0  0  0  0  0  0  0  0
   -4.4310    8.6840   -0.4590 C   0  0  0  0  0  0  0  0  0  0  0  0
   -4.9080    8.0930   -1.7510 C   0  0  2  0  0  0  0  0  0  0  0  0
   -6.2950    7.5070   -1.9410 C   0  0  0  0  0  0  0  0  0  0  0  0
   -7.2920    7.4820   -0.8250 C   0  0  0  0  0  0  0  0  0  0  0  0
   -6.5110    6.5250   -3.0510 C   0  0  0  0  0  0  0  0  0  0  0  0
    2.4710   17.9800   -3.0070 O   0  0  0  0  0  0  0  0  0  0  0  0
   -5.9570    8.8280   -2.3950 O   0  0  0  0  0  0  0  0  0  0  0  0
   -0.6921    7.5979   -0.8731 H   0  0  0  0  0  0  0  0  0  0  0  0
   -2.0644    7.9391   -1.9807 H   0  0  0  0  0  0  0  0  0  0  0  0
   -0.6225    9.0103   -1.9807 H   0  0  0  0  0  0  0  0  0  0  0  0
   -2.0384    8.6530    0.6275 H   0  0  0  0  0  0  0  0  0  0  0  0
   -3.5954   10.6302   -0.0957 H   0  0  0  0  0  0  0  0  0  0  0  0
   -3.3146    9.9426   -1.7662 H   0  0  0  0  0  0  0  0  0  0  0  0
   -4.0233    7.8803    0.1717 H   0  0  0  0  0  0  0  0  0  0  0  0
   -5.2857    9.1738    0.0305 H   0  0  0  0  0  0  0  0  0  0  0  0
   -3.9043    7.6991   -1.9686 H   0  0  0  0  0  0  0  0  0  0  0  0
   -6.7632    7.4953    0.1395 H   0  0  0  0  0  0  0  0  0  0  0  0
   -7.9453    8.3640   -0.8971 H   0  0  0  0  0  0  0  0  0  0  0  0
   -7.9003    6.5683   -0.8971 H   0  0  0  0  0  0  0  0  0  0  0  0
   -6.7290    5.5339   -2.6265 H   0  0  0  0  0  0  0  0  0  0  0  0
   -7.3585    6.8529   -3.6709 H   0  0  0  0  0  0  0  0  0  0  0  0
   -5.6041    6.4670   -3.6709 H   0  0  0  0  0  0  0  0  0  0  0  0
   -1.8104   11.1800    0.3676 H   0  0  0  0  0  0  0  0  0  0  0  0
   -0.2488   10.4384    2.0537 H   0  0  0  0  0  0  0  0  0  0  0  0
    0.3065    9.0799    1.0520 H   0  0  0  0  0  0  0  0  0  0  0  0
    1.7380   11.5142    1.4905 H   0  0  0  0  0  0  0  0  0  0  0  0
    2.1194   10.3609    0.2148 H   0  0  0  0  0  0  0  0  0  0  0  0
    0.2557   12.9181    1.5019 H   0  0  0  0  0  0  0  0  0  0  0  0
    0.6270   14.0940    0.1958 H   0  0  0  0  0  0  0  0  0  0  0  0
   -0.9406   13.2170    0.1958 H   0  0  0  0  0  0  0  0  0  0  0  0
    2.2653   11.6337   -1.8408 H   0  0  0  0  0  0  0  0  0  0  0  0
    3.1629   12.9652    0.1739 H   0  0  0  0  0  0  0  0  0  0  0  0
    3.8144   13.2504   -1.5242 H   0  0  0  0  0  0  0  0  0  0  0  0
    3.4014   15.4001   -0.0593 H   0  0  0  0  0  0  0  0  0  0  0  0
   -0.1626   14.7384   -1.8371 H   0  0  0  0  0  0  0  0  0  0  0  0
    1.6554   15.7407   -4.1141 H   0  0  0  0  0  0  0  0  0  0  0  0
   -0.0916   15.2496   -4.2466 H   0  0  0  0  0  0  0  0  0  0  0  0
    0.1903   17.7068   -4.2231 H   0  0  0  0  0  0  0  0  0  0  0  0
   -0.7496   17.0908   -2.8080 H   0  0  0  0  0  0  0  0  0  0  0  0
    0.7868   18.7697   -2.0425 H   0  0  0  0  0  0  0  0  0  0  0  0
    2.4120   18.8000   -3.5250 H   0  0  0  0  0  0  0  0  0  0  0  0
    0.4456   17.0527    0.9155 H   0  0  0  0  0  0  0  0  0  0  0  0
   -0.3836   17.9942   -0.3700 H   0  0  0  0  0  0  0  0  0  0  0  0
   -0.4749   16.2002   -0.3700 H   0  0  0  0  0  0  0  0  0  0  0  0
    2.3651   17.5925    0.8669 H   0  0  0  0  0  0  0  0  0  0  0  0
    3.5337   17.2743   -0.4597 H   0  0  0  0  0  0  0  0  0  0  0  0
    2.5651   18.7870   -0.4597 H   0  0  0  0  0  0  0  0  0  0  0  0
    3.2157   13.1895   -3.4133 H   0  0  0  0  0  0  0  0  0  0  0  0
    2.0082   12.3606   -4.4534 H   0  0  0  0  0  0  0  0  0  0  0  0
    2.1133   14.1538   -4.4534 H   0  0  0  0  0  0  0  0  0  0  0  0
   -0.7270   13.3367   -3.7574 H   0  0  0  0  0  0  0  0  0  0  0  0
    0.2273   11.7490   -3.8085 H   0  0  0  0  0  0  0  0  0  0  0  0
   -1.5637   12.7588   -1.5815 H   0  0  0  0  0  0  0  0  0  0  0  0
   -1.8002   11.3265   -2.6583 H   0  0  0  0  0  0  0  0  0  0  0  0
    0.7838    9.1614   -1.3016 H   0  0  0  0  0  0  0  0  0  0  0  0
   -0.3945    9.4481   -2.6268 H   0  0  0  0  0  0  0  0  0  0  0  0
    1.1835   10.3063   -2.6268 H   0  0  0  0  0  0  0  0  0  0  0  0
  1 12  1  0  0  0  0
  1 33  1  0  0  0  0
  1 34  1  0  0  0  0
  1 35  1  0  0  0  0
  2  3  1  0  0  0  0
  2 48  1  0  0  0  0
  3  4  1  0  0  0  0
  3 49  1  0  0  0  0
  3 50  1  0  0  0  0
  4  5  1  0  0  0  0
  4 51  1  0  0  0  0
  4 52  1  0  0  0  0
  5  6  1  0  0  0  0
  5  7  1  0  0  0  0
  6 53  1  0  0  0  0
  6 54  1  0  0  0  0
  6 55  1  0  0  0  0
  7  8  1  0  0  0  0
  7 56  1  0  0  0  0
  8  9  1  0  0  0  0
  8 57  1  0  0  0  0
  8 58  1  0  0  0  0
  9 10  2  0  0  0  0
  9 59  1  0  0  0  0
 10 11  1  0  0  0  0
 11 13  1  0  0  0  0
 11 19  1  0  0  0  0
 11 60  1  0  0  0  0
  2 12  1  0  0  0  0
 12 22  1  0  0  0  0
 12 36  1  0  0  0  0
 13 14  1  0  0  0  0
 13 61  1  0  0  0  0
 13 62  1  0  0  0  0
 14 15  1  0  0  0  0
 14 63  1  0  0  0  0
 14 64  1  0  0  0  0
 15 16  1  0  0  0  0
 15 31  1  0  0  0  0
 15 65  1  0  0  0  0
 10 16  1  0  0  0  0
 16 17  1  0  0  0  0
 16 18  1  0  0  0  0
 17 67  1  0  0  0  0
 17 68  1  0  0  0  0
 17 69  1  0  0  0  0
 18 70  1  0  0  0  0
 18 71  1  0  0  0  0
 18 72  1  0  0  0  0
  7 19  1  0  0  0  0
 19 20  1  0  0  0  0
 19 21  1  0  0  0  0
 20 73  1  0  0  0  0
 20 74  1  0  0  0  0
 20 75  1  0  0  0  0
 21 23  1  0  0  0  0
 21 76  1  0  0  0  0
 21 77  1  0  0  0  0
 22 26  1  0  0  0  0
 22 37  1  0  0  0  0
 22 38  1  0  0  0  0
 23 24  1  0  0  0  0
 23 78  1  0  0  0  0
 23 79  1  0  0  0  0
  2 24  1  0  0  0  0
  5 24  1  0  0  0  0
 24 25  1  0  0  0  0
 25 80  1  0  0  0  0
 25 81  1  0  0  0  0
 25 82  1  0  0  0  0
 26 27  1  0  0  0  0
 26 39  1  0  0  0  0
 26 40  1  0  0  0  0
 27 32  1  0  0  0  0
 27 41  1  0  0  0  0
 27 28  1  0  0  0  0
 28 29  1  0  0  0  0
 28 30  1  0  0  0  0
 29 42  1  0  0  0  0
 29 43  1  0  0  0  0
 29 44  1  0  0  0  0
 30 45  1  0  0  0  0
 30 46  1  0  0  0  0
 30 47  1  0  0  0  0
 31 66  1  0  0  0  0
 28 32  1  0  0  0  0
M  END
$$$$
