EPH_relaxed_0001_pdb2pqr_Repair_346_r2_0001_out
  PyMOL3.1          3D                             0

 82 86  0  0  1  0  0  0  0  0999 V2000
   -1.4840    8.4040   -1.8840 C   0  0  0  0  0  0  0  0  0  0  0  0
   -0.9240   10.1680   -0.2010 C   0  0  1  0  0  0  0  0  0  0  0  0
    0.2340    9.8100    0.7680 C   0  0  0  0  0  0  0  0  0  0  0  0
    1.4590   10.6560    0.3330 C   0  0  0  0  0  0  0  0  0  0  0  0
    0.8810   11.7050   -0.6450 C   0  0  1  0  0  0  0  0  0  0  0  0
    0.2780   12.8170    0.2690 C   0  0  0  0  0  0  0  0  0  0  0  0
    1.8790   12.2970   -1.6930 C   0  0  2  0  0  0  0  0  0  0  0  0
    3.0620   13.0800   -1.0960 C   0  0  0  0  0  0  0  0  0  0  0  0
    2.8280   14.5430   -0.9100 C   0  0  0  0  0  0  0  0  0  0  0  0
    1.8290   15.2530   -1.4650 C   0  0  0  0  0  0  0  0  0  0  0  0
    0.8580   14.6010   -2.4580 C   0  0  1  0  0  0  0  0  0  0  0  0
   -1.8240    8.9760   -0.5050 C   0  0  2  0  0  0  0  0  0  0  0  0
    0.6780   15.5280   -3.6900 C   0  0  0  0  0  0  0  0  0  0  0  0
    0.2550   16.9410   -3.3020 C   0  0  0  0  0  0  0  0  0  0  0  0
    1.2740   17.5770   -2.3600 C   0  0  2  0  0  0  0  0  0  0  0  0
    1.5450   16.7270   -1.0870 C   0  0  0  0  0  0  0  0  0  0  0  0
    0.3020   16.7620   -0.1640 C   0  0  0  0  0  0  0  0  0  0  0  0
    2.6930   17.4090   -0.2940 C   0  0  0  0  0  0  0  0  0  0  0  0
    1.1860   13.1010   -2.8660 C   0  0  1  0  0  0  0  0  0  0  0  0
    2.1800   13.0810   -4.0670 C   0  0  0  0  0  0  0  0  0  0  0  0
   -0.1330   12.4050   -3.3710 C   0  0  0  0  0  0  0  0  0  0  0  0
   -3.3050    9.3930   -0.3980 C   0  0  0  0  0  0  0  0  0  0  0  0
   -1.0170   11.7340   -2.3020 C   0  0  0  0  0  0  0  0  0  0  0  0
   -0.1850   10.8240   -1.3940 C   0  0  2  0  0  0  0  0  0  0  0  0
    0.4160    9.6820   -2.2830 C   0  0  0  0  0  0  0  0  0  0  0  0
   -4.2720    8.2110   -0.3010 C   0  0  0  0  0  0  0  0  0  0  0  0
   -4.9970    7.9810   -1.5930 C   0  0  2  0  0  0  0  0  0  0  0  0
   -6.3150    7.2350   -1.6900 C   0  0  0  0  0  0  0  0  0  0  0  0
   -6.9840    6.6700   -0.4760 C   0  0  0  0  0  0  0  0  0  0  0  0
   -6.7010    6.6340   -3.0060 C   0  0  0  0  0  0  0  0  0  0  0  0
    2.4980   17.7770   -3.0740 O   0  0  0  0  0  0  0  0  0  0  0  0
   -6.2490    8.6700   -1.7070 O   0  0  0  0  0  0  0  0  0  0  0  0
   -0.9253    7.4641   -1.7635 H   0  0  0  0  0  0  0  0  0  0  0  0
   -2.4133    8.2096   -2.4396 H   0  0  0  0  0  0  0  0  0  0  0  0
   -0.8692    9.1274   -2.4396 H   0  0  0  0  0  0  0  0  0  0  0  0
   -1.6509    8.1808    0.2351 H   0  0  0  0  0  0  0  0  0  0  0  0
   -3.4263   10.0155    0.5008 H   0  0  0  0  0  0  0  0  0  0  0  0
   -3.5533    9.9362   -1.3217 H   0  0  0  0  0  0  0  0  0  0  0  0
   -3.7031    7.3050   -0.0451 H   0  0  0  0  0  0  0  0  0  0  0  0
   -5.0175    8.4402    0.4747 H   0  0  0  0  0  0  0  0  0  0  0  0
   -4.0463    7.8734   -2.1357 H   0  0  0  0  0  0  0  0  0  0  0  0
   -6.5053    7.0743    0.4281 H   0  0  0  0  0  0  0  0  0  0  0  0
   -8.0487    6.9464   -0.4820 H   0  0  0  0  0  0  0  0  0  0  0  0
   -6.8897    5.5741   -0.4820 H   0  0  0  0  0  0  0  0  0  0  0  0
   -7.2881    5.7199   -2.8335 H   0  0  0  0  0  0  0  0  0  0  0  0
   -7.3049    7.3557   -3.5756 H   0  0  0  0  0  0  0  0  0  0  0  0
   -5.7935    6.3849   -3.5756 H   0  0  0  0  0  0  0  0  0  0  0  0
   -1.6717   10.8642    0.2068 H   0  0  0  0  0  0  0  0  0  0  0  0
   -0.0480   10.0557    1.8025 H   0  0  0  0  0  0  0  0  0  0  0  0
    0.4629    8.7348    0.7298 H   0  0  0  0  0  0  0  0  0  0  0  0
    1.9197   11.1479    1.2024 H   0  0  0  0  0  0  0  0  0  0  0  0
    2.2461   10.0429   -0.1302 H   0  0  0  0  0  0  0  0  0  0  0  0
    0.4259   12.5443    1.3244 H   0  0  0  0  0  0  0  0  0  0  0  0
    0.7811   13.7734    0.0634 H   0  0  0  0  0  0  0  0  0  0  0  0
   -0.7980   12.9171    0.0634 H   0  0  0  0  0  0  0  0  0  0  0  0
    2.3151   11.3923   -2.1418 H   0  0  0  0  0  0  0  0  0  0  0  0
    3.2962   12.6453   -0.1130 H   0  0  0  0  0  0  0  0  0  0  0  0
    3.8832   12.9925   -1.8226 H   0  0  0  0  0  0  0  0  0  0  0  0
    3.5328   15.0868   -0.2639 H   0  0  0  0  0  0  0  0  0  0  0  0
   -0.0985   14.4979   -1.9247 H   0  0  0  0  0  0  0  0  0  0  0  0
    1.6332   15.5824   -4.2329 H   0  0  0  0  0  0  0  0  0  0  0  0
   -0.1195   15.1007   -4.3156 H   0  0  0  0  0  0  0  0  0  0  0  0
    0.1734   17.5547   -4.2113 H   0  0  0  0  0  0  0  0  0  0  0  0
   -0.7147   16.8875   -2.7854 H   0  0  0  0  0  0  0  0  0  0  0  0
    0.8536   18.5332   -2.0151 H   0  0  0  0  0  0  0  0  0  0  0  0
    3.2060   17.8960   -2.4180 H   0  0  0  0  0  0  0  0  0  0  0  0
    0.6256   16.7529    0.8873 H   0  0  0  0  0  0  0  0  0  0  0  0
   -0.2760   17.6768   -0.3618 H   0  0  0  0  0  0  0  0  0  0  0  0
   -0.3265   15.8812   -0.3618 H   0  0  0  0  0  0  0  0  0  0  0  0
    2.5088   17.2995    0.7849 H   0  0  0  0  0  0  0  0  0  0  0  0
    3.6504   16.9331   -0.5526 H   0  0  0  0  0  0  0  0  0  0  0  0
    2.7330   18.4774   -0.5526 H   0  0  0  0  0  0  0  0  0  0  0  0
    3.2125   13.0602   -3.6881 H   0  0  0  0  0  0  0  0  0  0  0  0
    1.9963   12.1864   -4.6801 H   0  0  0  0  0  0  0  0  0  0  0  0
    2.0325   13.9823   -4.6801 H   0  0  0  0  0  0  0  0  0  0  0  0
   -0.7420   13.1708   -3.8737 H   0  0  0  0  0  0  0  0  0  0  0  0
    0.2050   11.5849   -4.0215 H   0  0  0  0  0  0  0  0  0  0  0  0
   -1.4951   12.5130   -1.6899 H   0  0  0  0  0  0  0  0  0  0  0  0
   -1.7772   11.1221   -2.8096 H   0  0  0  0  0  0  0  0  0  0  0  0
    0.8306    8.8941   -1.6370 H   0  0  0  0  0  0  0  0  0  0  0  0
   -0.3752    9.2568   -2.9180 H   0  0  0  0  0  0  0  0  0  0  0  0
    1.2144   10.0934   -2.9180 H   0  0  0  0  0  0  0  0  0  0  0  0
  1 12  1  0  0  0  0
  1 33  1  0  0  0  0
  1 34  1  0  0  0  0
  1 35  1  0  0  0  0
  2  3  1  0  0  0  0
  2 48  1  0  0  0  0
  3  4  1  0  0  0  0
  3 49  1  0  0  0  0
  3 50  1  0  0  0  0
  4  5  1  0  0  0  0
  4 51  1  0  0  0  0
  4 52  1  0  0  0  0
  5  6  1  0  0  0  0
  5  7  1  0  0  0  0
  6 53  1  0  0  0  0
  6 54  1  0  0  0  0
  6 55  1  0  0  0  0
  7  8  1  0  0  0  0
  7 56  1  0  0  0  0
  8  9  1  0  0  0  0
  8 57  1  0  0  0  0
  8 58  1  0  0  0  0
  9 10  2  0  0  0  0
  9 59  1  0  0  0  0
 10 11  1  0  0  0  0
 11 13  1  0  0  0  0
 11 19  1  0  0  0  0
 11 60  1  0  0  0  0
  2 12  1  0  0  0  0
 12 22  1  0  0  0  0
 12 36  1  0  0  0  0
 13 14  1  0  0  0  0
 13 61  1  0  0  0  0
 13 62  1  0  0  0  0
 14 15  1  0  0  0  0
 14 63  1  0  0  0  0
 14 64  1  0  0  0  0
 15 16  1  0  0  0  0
 15 31  1  0  0  0  0
 15 65  1  0  0  0  0
 10 16  1  0  0  0  0
 16 17  1  0  0  0  0
 16 18  1  0  0  0  0
 17 67  1  0  0  0  0
 17 68  1  0  0  0  0
 17 69  1  0  0  0  0
 18 70  1  0  0  0  0
 18 71  1  0  0  0  0
 18 72  1  0  0  0  0
  7 19  1  0  0  0  0
 19 20  1  0  0  0  0
 19 21  1  0  0  0  0
 20 73  1  0  0  0  0
 20 74  1  0  0  0  0
 20 75  1  0  0  0  0
 21 23  1  0  0  0  0
 21 76  1  0  0  0  0
 21 77  1  0  0  0  0
 22 26  1  0  0  0  0
 22 37  1  0  0  0  0
 22 38  1  0  0  0  0
 23 24  1  0  0  0  0
 23 78  1  0  0  0  0
 23 79  1  0  0  0  0
  2 24  1  0  0  0  0
  5 24  1  0  0  0  0
 24 25  1  0  0  0  0
 25 80  1  0  0  0  0
 25 81  1  0  0  0  0
 25 82  1  0  0  0  0
 26 27  1  0  0  0  0
 26 39  1  0  0  0  0
 26 40  1  0  0  0  0
 27 32  1  0  0  0  0
 27 41  1  0  0  0  0
 27 28  1  0  0  0  0
 28 29  1  0  0  0  0
 28 30  1  0  0  0  0
 29 42  1  0  0  0  0
 29 43  1  0  0  0  0
 29 44  1  0  0  0  0
 30 45  1  0  0  0  0
 30 46  1  0  0  0  0
 30 47  1  0  0  0  0
 31 66  1  0  0  0  0
 28 32  1  0  0  0  0
M  END
$$$$
