EPH_relaxed_0001_pdb2pqr_Repair_385_r2_0001_out
  PyMOL3.1          3D                             0

 82 86  0  0  1  0  0  0  0  0999 V2000
   -5.6330    6.3380   -3.6970 C   0  0  0  0  0  0  0  0  0  0  0  0
   -7.2850    7.2710   -2.0660 C   0  0  1  0  0  0  0  0  0  0  0  0
   -7.3090    6.4150   -0.7710 C   0  0  0  0  0  0  0  0  0  0  0  0
   -8.4070    7.0170    0.1420 C   0  0  0  0  0  0  0  0  0  0  0  0
   -9.1980    7.9760   -0.7780 C   0  0  1  0  0  0  0  0  0  0  0  0
  -10.1810    7.0560   -1.5670 C   0  0  0  0  0  0  0  0  0  0  0  0
   -9.9480    9.1510   -0.0700 C   0  0  2  0  0  0  0  0  0  0  0  0
  -11.0510    8.7220    0.9130 C   0  0  0  0  0  0  0  0  0  0  0  0
  -12.4140    8.5800    0.3210 C   0  0  0  0  0  0  0  0  0  0  0  0
  -12.8000    9.0590   -0.8760 C   0  0  0  0  0  0  0  0  0  0  0  0
  -11.8500    9.9110   -1.7270 C   0  0  1  0  0  0  0  0  0  0  0  0
   -5.8830    7.4210   -2.6440 C   0  0  2  0  0  0  0  0  0  0  0  0
  -12.6060   11.1580   -2.2560 C   0  0  0  0  0  0  0  0  0  0  0  0
  -13.8880   10.7940   -3.0000 C   0  0  0  0  0  0  0  0  0  0  0  0
  -14.8310    9.9970   -2.1020 C   0  0  2  0  0  0  0  0  0  0  0  0
  -14.1760    8.7220   -1.5030 C   0  0  0  0  0  0  0  0  0  0  0  0
  -13.9560    7.6740   -2.6220 C   0  0  0  0  0  0  0  0  0  0  0  0
  -15.1860    8.0880   -0.5080 C   0  0  0  0  0  0  0  0  0  0  0  0
  -10.4590   10.2800   -1.0540 C   0  0  1  0  0  0  0  0  0  0  0  0
  -10.6080   11.5780   -0.2030 C   0  0  0  0  0  0  0  0  0  0  0  0
   -9.4120   10.6080   -2.1830 C   0  0  0  0  0  0  0  0  0  0  0  0
   -4.8380    7.3810   -1.5110 C   0  0  0  0  0  0  0  0  0  0  0  0
   -8.6160    9.4210   -2.7590 C   0  0  0  0  0  0  0  0  0  0  0  0
   -8.0200    8.5650   -1.6370 C   0  0  2  0  0  0  0  0  0  0  0  0
   -7.0100    9.4590   -0.8400 C   0  0  0  0  0  0  0  0  0  0  0  0
   -3.4710    7.9410   -1.9130 C   0  0  0  0  0  0  0  0  0  0  0  0
   -2.8030    8.6460   -0.7720 C   0  0  2  0  0  0  0  0  0  0  0  0
   -1.5510    9.4900   -0.9270 C   0  0  0  0  0  0  0  0  0  0  0  0
   -0.8930    9.6720   -2.2590 C   0  0  0  0  0  0  0  0  0  0  0  0
   -0.6970    9.7310    0.2780 C   0  0  0  0  0  0  0  0  0  0  0  0
  -15.2870   10.8460   -1.0440 O   0  0  0  0  0  0  0  0  0  0  0  0
   -2.8590   10.0770   -0.8360 O   0  0  0  0  0  0  0  0  0  0  0  0
   -5.4127    5.3837   -3.1963 H   0  0  0  0  0  0  0  0  0  0  0  0
   -6.5285    6.2241   -4.3256 H   0  0  0  0  0  0  0  0  0  0  0  0
   -4.7782    6.6281   -4.3256 H   0  0  0  0  0  0  0  0  0  0  0  0
   -5.7904    8.3964   -3.1440 H   0  0  0  0  0  0  0  0  0  0  0  0
   -5.2201    7.9718   -0.6654 H   0  0  0  0  0  0  0  0  0  0  0  0
   -4.6874    6.3230   -1.2505 H   0  0  0  0  0  0  0  0  0  0  0  0
   -2.8293    7.1112   -2.2440 H   0  0  0  0  0  0  0  0  0  0  0  0
   -3.6238    8.6690   -2.7234 H   0  0  0  0  0  0  0  0  0  0  0  0
   -3.0601    7.8263   -0.0850 H   0  0  0  0  0  0  0  0  0  0  0  0
    0.1577    9.9626   -2.1123 H   0  0  0  0  0  0  0  0  0  0  0  0
   -0.9371    8.7279   -2.8218 H   0  0  0  0  0  0  0  0  0  0  0  0
   -1.4160   10.4592   -2.8218 H   0  0  0  0  0  0  0  0  0  0  0  0
   -1.2915    9.5632    1.1882 H   0  0  0  0  0  0  0  0  0  0  0  0
    0.1580    9.0391    0.2658 H   0  0  0  0  0  0  0  0  0  0  0  0
   -0.3298   10.7678    0.2658 H   0  0  0  0  0  0  0  0  0  0  0  0
   -7.7930    6.8190   -2.9306 H   0  0  0  0  0  0  0  0  0  0  0  0
   -7.5487    5.3690   -1.0126 H   0  0  0  0  0  0  0  0  0  0  0  0
   -6.3292    6.4269   -0.2712 H   0  0  0  0  0  0  0  0  0  0  0  0
   -9.0630    6.2257    0.5337 H   0  0  0  0  0  0  0  0  0  0  0  0
   -7.9849    7.5326    1.0172 H   0  0  0  0  0  0  0  0  0  0  0  0
  -10.7948    6.4815   -0.8576 H   0  0  0  0  0  0  0  0  0  0  0  0
  -10.8343    7.6747   -2.1998 H   0  0  0  0  0  0  0  0  0  0  0  0
   -9.6068    6.3632   -2.1998 H   0  0  0  0  0  0  0  0  0  0  0  0
   -9.1552    9.5995    0.5467 H   0  0  0  0  0  0  0  0  0  0  0  0
  -10.7643    7.7507    1.3425 H   0  0  0  0  0  0  0  0  0  0  0  0
  -11.1254    9.5287    1.6572 H   0  0  0  0  0  0  0  0  0  0  0  0
  -13.1663    8.0382    0.9130 H   0  0  0  0  0  0  0  0  0  0  0  0
  -11.5441    9.2749   -2.5706 H   0  0  0  0  0  0  0  0  0  0  0  0
  -12.8645   11.8019   -1.4024 H   0  0  0  0  0  0  0  0  0  0  0  0
  -11.9430   11.6736   -2.9663 H   0  0  0  0  0  0  0  0  0  0  0  0
  -14.3919   11.7171   -3.3223 H   0  0  0  0  0  0  0  0  0  0  0  0
  -13.6255   10.1756   -3.8710 H   0  0  0  0  0  0  0  0  0  0  0  0
  -15.6693    9.6543   -2.7263 H   0  0  0  0  0  0  0  0  0  0  0  0
  -14.8800   10.5330   -0.2190 H   0  0  0  0  0  0  0  0  0  0  0  0
  -13.7500    6.6926   -2.1699 H   0  0  0  0  0  0  0  0  0  0  0  0
  -14.8599    7.6080   -3.2454 H   0  0  0  0  0  0  0  0  0  0  0  0
  -13.1019    7.9771   -3.2454 H   0  0  0  0  0  0  0  0  0  0  0  0
  -14.8617    8.2916    0.5232 H   0  0  0  0  0  0  0  0  0  0  0  0
  -16.1833    8.5224   -0.6712 H   0  0  0  0  0  0  0  0  0  0  0  0
  -15.2283    7.0010   -0.6712 H   0  0  0  0  0  0  0  0  0  0  0  0
  -10.5785   11.3209    0.8661 H   0  0  0  0  0  0  0  0  0  0  0  0
   -9.7830   12.2668   -0.4374 H   0  0  0  0  0  0  0  0  0  0  0  0
  -11.5676   12.0620   -0.4374 H   0  0  0  0  0  0  0  0  0  0  0  0
   -9.9563   11.0786   -3.0150 H   0  0  0  0  0  0  0  0  0  0  0  0
   -8.6610   11.2511   -1.7008 H   0  0  0  0  0  0  0  0  0  0  0  0
   -9.2880    8.7987   -3.3682 H   0  0  0  0  0  0  0  0  0  0  0  0
   -7.7937    9.8153   -3.3741 H   0  0  0  0  0  0  0  0  0  0  0  0
   -7.1687    9.3185    0.2394 H   0  0  0  0  0  0  0  0  0  0  0  0
   -5.9808    9.1705   -1.0999 H   0  0  0  0  0  0  0  0  0  0  0  0
   -7.1714   10.5156   -1.0999 H   0  0  0  0  0  0  0  0  0  0  0  0
  1 12  1  0  0  0  0
  1 33  1  0  0  0  0
  1 34  1  0  0  0  0
  1 35  1  0  0  0  0
  2  3  1  0  0  0  0
  2 48  1  0  0  0  0
  3  4  1  0  0  0  0
  3 49  1  0  0  0  0
  3 50  1  0  0  0  0
  4  5  1  0  0  0  0
  4 51  1  0  0  0  0
  4 52  1  0  0  0  0
  5  6  1  0  0  0  0
  5  7  1  0  0  0  0
  6 53  1  0  0  0  0
  6 54  1  0  0  0  0
  6 55  1  0  0  0  0
  7  8  1  0  0  0  0
  7 56  1  0  0  0  0
  8  9  1  0  0  0  0
  8 57  1  0  0  0  0
  8 58  1  0  0  0  0
  9 10  2  0  0  0  0
  9 59  1  0  0  0  0
 10 11  1  0  0  0  0
 11 13  1  0  0  0  0
 11 19  1  0  0  0  0
 11 60  1  0  0  0  0
  2 12  1  0  0  0  0
 12 22  1  0  0  0  0
 12 36  1  0  0  0  0
 13 14  1  0  0  0  0
 13 61  1  0  0  0  0
 13 62  1  0  0  0  0
 14 15  1  0  0  0  0
 14 63  1  0  0  0  0
 14 64  1  0  0  0  0
 15 16  1  0  0  0  0
 15 31  1  0  0  0  0
 15 65  1  0  0  0  0
 10 16  1  0  0  0  0
 16 17  1  0  0  0  0
 16 18  1  0  0  0  0
 17 67  1  0  0  0  0
 17 68  1  0  0  0  0
 17 69  1  0  0  0  0
 18 70  1  0  0  0  0
 18 71  1  0  0  0  0
 18 72  1  0  0  0  0
  7 19  1  0  0  0  0
 19 20  1  0  0  0  0
 19 21  1  0  0  0  0
 20 73  1  0  0  0  0
 20 74  1  0  0  0  0
 20 75  1  0  0  0  0
 21 23  1  0  0  0  0
 21 76  1  0  0  0  0
 21 77  1  0  0  0  0
 22 26  1  0  0  0  0
 22 37  1  0  0  0  0
 22 38  1  0  0  0  0
 23 24  1  0  0  0  0
 23 78  1  0  0  0  0
 23 79  1  0  0  0  0
  2 24  1  0  0  0  0
  5 24  1  0  0  0  0
 24 25  1  0  0  0  0
 25 80  1  0  0  0  0
 25 81  1  0  0  0  0
 25 82  1  0  0  0  0
 26 27  1  0  0  0  0
 26 39  1  0  0  0  0
 26 40  1  0  0  0  0
 27 32  1  0  0  0  0
 27 41  1  0  0  0  0
 27 28  1  0  0  0  0
 28 29  1  0  0  0  0
 28 30  1  0  0  0  0
 29 42  1  0  0  0  0
 29 43  1  0  0  0  0
 29 44  1  0  0  0  0
 30 45  1  0  0  0  0
 30 46  1  0  0  0  0
 30 47  1  0  0  0  0
 31 66  1  0  0  0  0
 28 32  1  0  0  0  0
M  END
$$$$
