EPH_relaxed_0001_pdb2pqr_Repair_223_r2_0001_out
  PyMOL3.1          3D                             0

 82 86  0  0  1  0  0  0  0  0999 V2000
   -1.7200    8.5890   -1.8730 C   0  0  0  0  0  0  0  0  0  0  0  0
   -1.2440   10.3170   -0.1280 C   0  0  1  0  0  0  0  0  0  0  0  0
   -0.2230   10.0160    1.0010 C   0  0  0  0  0  0  0  0  0  0  0  0
    1.0500   10.8430    0.6860 C   0  0  0  0  0  0  0  0  0  0  0  0
    0.6080   11.8360   -0.4140 C   0  0  1  0  0  0  0  0  0  0  0  0
   -0.1060   12.9930    0.3530 C   0  0  0  0  0  0  0  0  0  0  0  0
    1.7360   12.3760   -1.3530 C   0  0  2  0  0  0  0  0  0  0  0  0
    2.8330   13.1950   -0.6500 C   0  0  0  0  0  0  0  0  0  0  0  0
    2.5810   14.6640   -0.5730 C   0  0  0  0  0  0  0  0  0  0  0  0
    1.6640   15.3390   -1.2920 C   0  0  0  0  0  0  0  0  0  0  0  0
    0.8290   14.6320   -2.3670 C   0  0  1  0  0  0  0  0  0  0  0  0
   -2.1000    9.1070   -0.4830 C   0  0  2  0  0  0  0  0  0  0  0  0
    0.8140   15.4900   -3.6590 C   0  0  0  0  0  0  0  0  0  0  0  0
    0.3480   16.9210   -3.4050 C   0  0  0  0  0  0  0  0  0  0  0  0
    1.2380   17.6100   -2.3740 C   0  0  2  0  0  0  0  0  0  0  0  0
    1.3380   16.8310   -1.0330 C   0  0  0  0  0  0  0  0  0  0  0  0
   -0.0150   16.9090   -0.2830 C   0  0  0  0  0  0  0  0  0  0  0  0
    2.3740   17.5580   -0.1340 C   0  0  0  0  0  0  0  0  0  0  0  0
    1.2040   13.1130   -2.6480 C   0  0  1  0  0  0  0  0  0  0  0  0
    2.3470   13.0340   -3.7060 C   0  0  0  0  0  0  0  0  0  0  0  0
   -0.0400   12.3860   -3.2820 C   0  0  0  0  0  0  0  0  0  0  0  0
   -3.5940    9.4730   -0.3880 C   0  0  0  0  0  0  0  0  0  0  0  0
   -1.0580   11.7690   -2.3040 C   0  0  0  0  0  0  0  0  0  0  0  0
   -0.3530   10.9120   -1.2480 C   0  0  2  0  0  0  0  0  0  0  0  0
    0.3550    9.7270   -1.9880 C   0  0  0  0  0  0  0  0  0  0  0  0
   -4.5150    8.2610   -0.2210 C   0  0  0  0  0  0  0  0  0  0  0  0
   -5.2150    7.9150   -1.5000 C   0  0  2  0  0  0  0  0  0  0  0  0
   -6.6200    7.3460   -1.5580 C   0  0  0  0  0  0  0  0  0  0  0  0
   -7.4090    7.0890   -0.3130 C   0  0  0  0  0  0  0  0  0  0  0  0
   -7.0350    6.5890   -2.7810 C   0  0  0  0  0  0  0  0  0  0  0  0
    2.5450   17.7770   -2.9320 O   0  0  0  0  0  0  0  0  0  0  0  0
   -6.3500    8.7360   -1.8020 O   0  0  0  0  0  0  0  0  0  0  0  0
   -1.0722    7.7059   -1.7707 H   0  0  0  0  0  0  0  0  0  0  0  0
   -2.6316    8.3132   -2.4234 H   0  0  0  0  0  0  0  0  0  0  0  0
   -1.1832    9.3757   -2.4234 H   0  0  0  0  0  0  0  0  0  0  0  0
   -1.9130    8.2951    0.2352 H   0  0  0  0  0  0  0  0  0  0  0  0
   -3.7344   10.1378    0.4771 H   0  0  0  0  0  0  0  0  0  0  0  0
   -3.8677    9.9565   -1.3374 H   0  0  0  0  0  0  0  0  0  0  0  0
   -3.9134    7.3980    0.1006 H   0  0  0  0  0  0  0  0  0  0  0  0
   -5.2784    8.5120    0.5301 H   0  0  0  0  0  0  0  0  0  0  0  0
   -4.2686    7.5907   -1.9573 H   0  0  0  0  0  0  0  0  0  0  0  0
   -6.7818    7.2933    0.5673 H   0  0  0  0  0  0  0  0  0  0  0  0
   -8.2908    7.7464   -0.2955 H   0  0  0  0  0  0  0  0  0  0  0  0
   -7.7345    6.0384   -0.2955 H   0  0  0  0  0  0  0  0  0  0  0  0
   -7.5439    5.6606   -2.4825 H   0  0  0  0  0  0  0  0  0  0  0  0
   -7.7206    7.2068   -3.3796 H   0  0  0  0  0  0  0  0  0  0  0  0
   -6.1454    6.3433   -3.3796 H   0  0  0  0  0  0  0  0  0  0  0  0
   -2.0368   11.0304    0.1412 H   0  0  0  0  0  0  0  0  0  0  0  0
   -0.6370   10.3145    1.9754 H   0  0  0  0  0  0  0  0  0  0  0  0
    0.0065    8.9413    1.0494 H   0  0  0  0  0  0  0  0  0  0  0  0
    1.3938   11.3826    1.5808 H   0  0  0  0  0  0  0  0  0  0  0  0
    1.8895   10.2097    0.3633 H   0  0  0  0  0  0  0  0  0  0  0  0
   -0.0061   12.8311    1.4364 H   0  0  0  0  0  0  0  0  0  0  0  0
    0.3568   13.9533    0.0815 H   0  0  0  0  0  0  0  0  0  0  0  0
   -1.1718   13.0099    0.0815 H   0  0  0  0  0  0  0  0  0  0  0  0
    2.2248   11.4505   -1.6915 H   0  0  0  0  0  0  0  0  0  0  0  0
    2.9367   12.8136    0.3765 H   0  0  0  0  0  0  0  0  0  0  0  0
    3.7410   13.0734   -1.2589 H   0  0  0  0  0  0  0  0  0  0  0  0
    3.1962   15.2443    0.1304 H   0  0  0  0  0  0  0  0  0  0  0  0
   -0.1895   14.5546   -1.9587 H   0  0  0  0  0  0  0  0  0  0  0  0
    1.8319   15.5191   -4.0750 H   0  0  0  0  0  0  0  0  0  0  0  0
    0.1038   15.0266   -4.3597 H   0  0  0  0  0  0  0  0  0  0  0  0
    0.3871   17.4851   -4.3485 H   0  0  0  0  0  0  0  0  0  0  0  0
   -0.6808   16.8914   -3.0167 H   0  0  0  0  0  0  0  0  0  0  0  0
    0.7793   18.5817   -2.1386 H   0  0  0  0  0  0  0  0  0  0  0  0
    2.4410   18.1960   -3.8030 H   0  0  0  0  0  0  0  0  0  0  0  0
    0.1661   16.8986    0.8019 H   0  0  0  0  0  0  0  0  0  0  0  0
   -0.5343   17.8386   -0.5592 H   0  0  0  0  0  0  0  0  0  0  0  0
   -0.6376   16.0453   -0.5592 H   0  0  0  0  0  0  0  0  0  0  0  0
    2.1271   17.3847    0.9238 H   0  0  0  0  0  0  0  0  0  0  0  0
    3.3804   17.1670   -0.3444 H   0  0  0  0  0  0  0  0  0  0  0  0
    2.3486   18.6374   -0.3444 H   0  0  0  0  0  0  0  0  0  0  0  0
    3.3176   12.9669   -3.1928 H   0  0  0  0  0  0  0  0  0  0  0  0
    2.2029   12.1437   -4.3357 H   0  0  0  0  0  0  0  0  0  0  0  0
    2.3267   13.9357   -4.3357 H   0  0  0  0  0  0  0  0  0  0  0  0
   -0.5760   13.1216   -3.8997 H   0  0  0  0  0  0  0  0  0  0  0  0
    0.3777   11.5336   -3.8378 H   0  0  0  0  0  0  0  0  0  0  0  0
   -1.6100   12.5771   -1.8018 H   0  0  0  0  0  0  0  0  0  0  0  0
   -1.7474   11.1280   -2.8731 H   0  0  0  0  0  0  0  0  0  0  0  0
    0.7721    9.0289   -1.2472 H   0  0  0  0  0  0  0  0  0  0  0  0
   -0.3759    9.1992   -2.6183 H   0  0  0  0  0  0  0  0  0  0  0  0
    1.1661   10.1206   -2.6183 H   0  0  0  0  0  0  0  0  0  0  0  0
  1 12  1  0  0  0  0
  1 33  1  0  0  0  0
  1 34  1  0  0  0  0
  1 35  1  0  0  0  0
  2  3  1  0  0  0  0
  2 48  1  0  0  0  0
  3  4  1  0  0  0  0
  3 49  1  0  0  0  0
  3 50  1  0  0  0  0
  4  5  1  0  0  0  0
  4 51  1  0  0  0  0
  4 52  1  0  0  0  0
  5  6  1  0  0  0  0
  5  7  1  0  0  0  0
  6 53  1  0  0  0  0
  6 54  1  0  0  0  0
  6 55  1  0  0  0  0
  7  8  1  0  0  0  0
  7 56  1  0  0  0  0
  8  9  1  0  0  0  0
  8 57  1  0  0  0  0
  8 58  1  0  0  0  0
  9 10  2  0  0  0  0
  9 59  1  0  0  0  0
 10 11  1  0  0  0  0
 11 13  1  0  0  0  0
 11 19  1  0  0  0  0
 11 60  1  0  0  0  0
  2 12  1  0  0  0  0
 12 22  1  0  0  0  0
 12 36  1  0  0  0  0
 13 14  1  0  0  0  0
 13 61  1  0  0  0  0
 13 62  1  0  0  0  0
 14 15  1  0  0  0  0
 14 63  1  0  0  0  0
 14 64  1  0  0  0  0
 15 16  1  0  0  0  0
 15 31  1  0  0  0  0
 15 65  1  0  0  0  0
 10 16  1  0  0  0  0
 16 17  1  0  0  0  0
 16 18  1  0  0  0  0
 17 67  1  0  0  0  0
 17 68  1  0  0  0  0
 17 69  1  0  0  0  0
 18 70  1  0  0  0  0
 18 71  1  0  0  0  0
 18 72  1  0  0  0  0
  7 19  1  0  0  0  0
 19 20  1  0  0  0  0
 19 21  1  0  0  0  0
 20 73  1  0  0  0  0
 20 74  1  0  0  0  0
 20 75  1  0  0  0  0
 21 23  1  0  0  0  0
 21 76  1  0  0  0  0
 21 77  1  0  0  0  0
 22 26  1  0  0  0  0
 22 37  1  0  0  0  0
 22 38  1  0  0  0  0
 23 24  1  0  0  0  0
 23 78  1  0  0  0  0
 23 79  1  0  0  0  0
  2 24  1  0  0  0  0
  5 24  1  0  0  0  0
 24 25  1  0  0  0  0
 25 80  1  0  0  0  0
 25 81  1  0  0  0  0
 25 82  1  0  0  0  0
 26 27  1  0  0  0  0
 26 39  1  0  0  0  0
 26 40  1  0  0  0  0
 27 32  1  0  0  0  0
 27 41  1  0  0  0  0
 27 28  1  0  0  0  0
 28 29  1  0  0  0  0
 28 30  1  0  0  0  0
 29 42  1  0  0  0  0
 29 43  1  0  0  0  0
 29 44  1  0  0  0  0
 30 45  1  0  0  0  0
 30 46  1  0  0  0  0
 30 47  1  0  0  0  0
 31 66  1  0  0  0  0
 28 32  1  0  0  0  0
M  END
$$$$
