EPH_relaxed_0001_pdb2pqr_Repair_282_r2_0001_out
  PyMOL3.1          3D                             0

 82 86  0  0  1  0  0  0  0  0999 V2000
   -1.7110    8.5830   -1.8740 C   0  0  0  0  0  0  0  0  0  0  0  0
   -1.2370   10.3150   -0.1320 C   0  0  1  0  0  0  0  0  0  0  0  0
   -0.2120   10.0150    0.9940 C   0  0  0  0  0  0  0  0  0  0  0  0
    1.0590   10.8440    0.6750 C   0  0  0  0  0  0  0  0  0  0  0  0
    0.6110   11.8370   -0.4220 C   0  0  1  0  0  0  0  0  0  0  0  0
   -0.1020   12.9920    0.3480 C   0  0  0  0  0  0  0  0  0  0  0  0
    1.7360   12.3790   -1.3640 C   0  0  2  0  0  0  0  0  0  0  0  0
    2.8340   13.1990   -0.6640 C   0  0  0  0  0  0  0  0  0  0  0  0
    2.5800   14.6680   -0.5850 C   0  0  0  0  0  0  0  0  0  0  0  0
    1.6610   15.3420   -1.3010 C   0  0  0  0  0  0  0  0  0  0  0  0
    0.8240   14.6340   -2.3740 C   0  0  1  0  0  0  0  0  0  0  0  0
   -2.0930    9.1050   -0.4850 C   0  0  2  0  0  0  0  0  0  0  0  0
    0.8030   15.4940   -3.6650 C   0  0  0  0  0  0  0  0  0  0  0  0
    0.3360   16.9230   -3.4090 C   0  0  0  0  0  0  0  0  0  0  0  0
    1.2280   17.6130   -2.3800 C   0  0  2  0  0  0  0  0  0  0  0  0
    1.3330   16.8330   -1.0390 C   0  0  0  0  0  0  0  0  0  0  0  0
   -0.0180   16.9090   -0.2860 C   0  0  0  0  0  0  0  0  0  0  0  0
    2.3720   17.5610   -0.1440 C   0  0  0  0  0  0  0  0  0  0  0  0
    1.1990   13.1160   -2.6570 C   0  0  1  0  0  0  0  0  0  0  0  0
    2.3390   13.0390   -3.7190 C   0  0  0  0  0  0  0  0  0  0  0  0
   -0.0460   12.3880   -3.2880 C   0  0  0  0  0  0  0  0  0  0  0  0
   -3.5870    9.4700   -0.3920 C   0  0  0  0  0  0  0  0  0  0  0  0
   -1.0600   11.7690   -2.3070 C   0  0  0  0  0  0  0  0  0  0  0  0
   -0.3510   10.9120   -1.2540 C   0  0  2  0  0  0  0  0  0  0  0  0
    0.3570    9.7290   -1.9970 C   0  0  0  0  0  0  0  0  0  0  0  0
   -4.5090    8.2580   -0.2370 C   0  0  0  0  0  0  0  0  0  0  0  0
   -5.2090    7.9260   -1.5200 C   0  0  2  0  0  0  0  0  0  0  0  0
   -6.6100    7.3460   -1.5830 C   0  0  0  0  0  0  0  0  0  0  0  0
   -7.3940    7.0630   -0.3400 C   0  0  0  0  0  0  0  0  0  0  0  0
   -7.0220    6.6040   -2.8170 C   0  0  0  0  0  0  0  0  0  0  0  0
    2.5330   17.7830   -2.9410 O   0  0  0  0  0  0  0  0  0  0  0  0
   -6.3530    8.7420   -1.8070 O   0  0  0  0  0  0  0  0  0  0  0  0
   -1.0644    7.6994   -1.7686 H   0  0  0  0  0  0  0  0  0  0  0  0
   -2.6220    8.3070   -2.4253 H   0  0  0  0  0  0  0  0  0  0  0  0
   -1.1724    9.3678   -2.4253 H   0  0  0  0  0  0  0  0  0  0  0  0
   -1.9070    8.2952    0.2358 H   0  0  0  0  0  0  0  0  0  0  0  0
   -3.7300   10.1283    0.4776 H   0  0  0  0  0  0  0  0  0  0  0  0
   -3.8573    9.9600   -1.3390 H   0  0  0  0  0  0  0  0  0  0  0  0
   -3.9086    7.3911    0.0761 H   0  0  0  0  0  0  0  0  0  0  0  0
   -5.2722    8.5020    0.5167 H   0  0  0  0  0  0  0  0  0  0  0  0
   -4.2609    7.6173   -1.9846 H   0  0  0  0  0  0  0  0  0  0  0  0
   -6.7759    7.2861    0.5421 H   0  0  0  0  0  0  0  0  0  0  0  0
   -8.2961    7.6922   -0.3243 H   0  0  0  0  0  0  0  0  0  0  0  0
   -7.6862    6.0026   -0.3243 H   0  0  0  0  0  0  0  0  0  0  0  0
   -7.5377    5.6753   -2.5314 H   0  0  0  0  0  0  0  0  0  0  0  0
   -7.7007    7.2319   -3.4130 H   0  0  0  0  0  0  0  0  0  0  0  0
   -6.1302    6.3599   -3.4130 H   0  0  0  0  0  0  0  0  0  0  0  0
   -2.0299   11.0271    0.1404 H   0  0  0  0  0  0  0  0  0  0  0  0
   -0.6234   10.3127    1.9698 H   0  0  0  0  0  0  0  0  0  0  0  0
    0.0191    8.9406    1.0416 H   0  0  0  0  0  0  0  0  0  0  0  0
    1.4056   11.3832    1.5690 H   0  0  0  0  0  0  0  0  0  0  0  0
    1.8983   10.2123    0.3487 H   0  0  0  0  0  0  0  0  0  0  0  0
   -0.0007   12.8279    1.4310 H   0  0  0  0  0  0  0  0  0  0  0  0
    0.3603   13.9529    0.0779 H   0  0  0  0  0  0  0  0  0  0  0  0
   -1.1682   13.0093    0.0779 H   0  0  0  0  0  0  0  0  0  0  0  0
    2.2252   11.4544   -1.7041 H   0  0  0  0  0  0  0  0  0  0  0  0
    2.9417   12.8170    0.3619 H   0  0  0  0  0  0  0  0  0  0  0  0
    3.7402   13.0792   -1.2760 H   0  0  0  0  0  0  0  0  0  0  0  0
    3.1959   15.2485    0.1176 H   0  0  0  0  0  0  0  0  0  0  0  0
   -0.1930   14.5538   -1.9625 H   0  0  0  0  0  0  0  0  0  0  0  0
    1.8194   15.5251   -4.0844 H   0  0  0  0  0  0  0  0  0  0  0  0
    0.0906   15.0303   -4.3632 H   0  0  0  0  0  0  0  0  0  0  0  0
    0.3715   17.4877   -4.3523 H   0  0  0  0  0  0  0  0  0  0  0  0
   -0.6916   16.8915   -3.0177 H   0  0  0  0  0  0  0  0  0  0  0  0
    0.7681   18.5838   -2.1431 H   0  0  0  0  0  0  0  0  0  0  0  0
    2.9650   16.9120   -2.9500 H   0  0  0  0  0  0  0  0  0  0  0  0
    0.1656   16.8987    0.7985 H   0  0  0  0  0  0  0  0  0  0  0  0
   -0.5392   17.8379   -0.5608 H   0  0  0  0  0  0  0  0  0  0  0  0
   -0.6401   16.0444   -0.5608 H   0  0  0  0  0  0  0  0  0  0  0  0
    2.1278   17.3899    0.9148 H   0  0  0  0  0  0  0  0  0  0  0  0
    3.3776   17.1689   -0.3563 H   0  0  0  0  0  0  0  0  0  0  0  0
    2.3468   18.6400   -0.3563 H   0  0  0  0  0  0  0  0  0  0  0  0
    3.3114   12.9733   -3.2090 H   0  0  0  0  0  0  0  0  0  0  0  0
    2.1942   12.1486   -4.3484 H   0  0  0  0  0  0  0  0  0  0  0  0
    2.3153   13.9408   -4.3484 H   0  0  0  0  0  0  0  0  0  0  0  0
   -0.5848   13.1235   -3.9034 H   0  0  0  0  0  0  0  0  0  0  0  0
    0.3709   11.5367   -3.8461 H   0  0  0  0  0  0  0  0  0  0  0  0
   -1.6113   12.5761   -1.8024 H   0  0  0  0  0  0  0  0  0  0  0  0
   -1.7503   11.1276   -2.8744 H   0  0  0  0  0  0  0  0  0  0  0  0
    0.7754    9.0299   -1.2580 H   0  0  0  0  0  0  0  0  0  0  0  0
   -0.3742    9.2019   -2.6274 H   0  0  0  0  0  0  0  0  0  0  0  0
    1.1671   10.1244   -2.6274 H   0  0  0  0  0  0  0  0  0  0  0  0
  1 12  1  0  0  0  0
  1 33  1  0  0  0  0
  1 34  1  0  0  0  0
  1 35  1  0  0  0  0
  2  3  1  0  0  0  0
  2 48  1  0  0  0  0
  3  4  1  0  0  0  0
  3 49  1  0  0  0  0
  3 50  1  0  0  0  0
  4  5  1  0  0  0  0
  4 51  1  0  0  0  0
  4 52  1  0  0  0  0
  5  6  1  0  0  0  0
  5  7  1  0  0  0  0
  6 53  1  0  0  0  0
  6 54  1  0  0  0  0
  6 55  1  0  0  0  0
  7  8  1  0  0  0  0
  7 56  1  0  0  0  0
  8  9  1  0  0  0  0
  8 57  1  0  0  0  0
  8 58  1  0  0  0  0
  9 10  2  0  0  0  0
  9 59  1  0  0  0  0
 10 11  1  0  0  0  0
 11 13  1  0  0  0  0
 11 19  1  0  0  0  0
 11 60  1  0  0  0  0
  2 12  1  0  0  0  0
 12 22  1  0  0  0  0
 12 36  1  0  0  0  0
 13 14  1  0  0  0  0
 13 61  1  0  0  0  0
 13 62  1  0  0  0  0
 14 15  1  0  0  0  0
 14 63  1  0  0  0  0
 14 64  1  0  0  0  0
 15 16  1  0  0  0  0
 15 31  1  0  0  0  0
 15 65  1  0  0  0  0
 10 16  1  0  0  0  0
 16 17  1  0  0  0  0
 16 18  1  0  0  0  0
 17 67  1  0  0  0  0
 17 68  1  0  0  0  0
 17 69  1  0  0  0  0
 18 70  1  0  0  0  0
 18 71  1  0  0  0  0
 18 72  1  0  0  0  0
  7 19  1  0  0  0  0
 19 20  1  0  0  0  0
 19 21  1  0  0  0  0
 20 73  1  0  0  0  0
 20 74  1  0  0  0  0
 20 75  1  0  0  0  0
 21 23  1  0  0  0  0
 21 76  1  0  0  0  0
 21 77  1  0  0  0  0
 22 26  1  0  0  0  0
 22 37  1  0  0  0  0
 22 38  1  0  0  0  0
 23 24  1  0  0  0  0
 23 78  1  0  0  0  0
 23 79  1  0  0  0  0
  2 24  1  0  0  0  0
  5 24  1  0  0  0  0
 24 25  1  0  0  0  0
 25 80  1  0  0  0  0
 25 81  1  0  0  0  0
 25 82  1  0  0  0  0
 26 27  1  0  0  0  0
 26 39  1  0  0  0  0
 26 40  1  0  0  0  0
 27 32  1  0  0  0  0
 27 41  1  0  0  0  0
 27 28  1  0  0  0  0
 28 29  1  0  0  0  0
 28 30  1  0  0  0  0
 29 42  1  0  0  0  0
 29 43  1  0  0  0  0
 29 44  1  0  0  0  0
 30 45  1  0  0  0  0
 30 46  1  0  0  0  0
 30 47  1  0  0  0  0
 31 66  1  0  0  0  0
 28 32  1  0  0  0  0
M  END
$$$$
