EPH_relaxed_0001_pdb2pqr_Repair_241_r2_0001_out
  PyMOL3.1          3D                             0

 82 86  0  0  1  0  0  0  0  0999 V2000
   -1.6820    8.5840   -1.8880 C   0  0  0  0  0  0  0  0  0  0  0  0
   -1.2060   10.3160   -0.1460 C   0  0  1  0  0  0  0  0  0  0  0  0
   -0.1700   10.0140    0.9690 C   0  0  0  0  0  0  0  0  0  0  0  0
    1.0940   10.8490    0.6440 C   0  0  0  0  0  0  0  0  0  0  0  0
    0.6340   11.8460   -0.4460 C   0  0  1  0  0  0  0  0  0  0  0  0
   -0.0770   12.9950    0.3360 C   0  0  0  0  0  0  0  0  0  0  0  0
    1.7480   12.3970   -1.3940 C   0  0  2  0  0  0  0  0  0  0  0  0
    2.8490   13.2180   -0.7000 C   0  0  0  0  0  0  0  0  0  0  0  0
    2.5900   14.6860   -0.6120 C   0  0  0  0  0  0  0  0  0  0  0  0
    1.6620   15.3600   -1.3160 C   0  0  0  0  0  0  0  0  0  0  0  0
    0.8180   14.6540   -2.3850 C   0  0  1  0  0  0  0  0  0  0  0  0
   -2.0600    9.1030   -0.4980 C   0  0  2  0  0  0  0  0  0  0  0  0
    0.7830   15.5190   -3.6720 C   0  0  0  0  0  0  0  0  0  0  0  0
    0.3120   16.9460   -3.4050 C   0  0  0  0  0  0  0  0  0  0  0  0
    1.2100   17.6340   -2.3800 C   0  0  2  0  0  0  0  0  0  0  0  0
    1.3300   16.8480   -1.0450 C   0  0  0  0  0  0  0  0  0  0  0  0
   -0.0140   16.9150   -0.2790 C   0  0  0  0  0  0  0  0  0  0  0  0
    2.3730   17.5760   -0.1550 C   0  0  0  0  0  0  0  0  0  0  0  0
    1.1970   13.1390   -2.6790 C   0  0  1  0  0  0  0  0  0  0  0  0
    2.3280   13.0710   -3.7510 C   0  0  0  0  0  0  0  0  0  0  0  0
   -0.0500   12.4080   -3.3030 C   0  0  0  0  0  0  0  0  0  0  0  0
   -3.5550    9.4650   -0.4000 C   0  0  0  0  0  0  0  0  0  0  0  0
   -1.0530   11.7810   -2.3160 C   0  0  0  0  0  0  0  0  0  0  0  0
   -0.3320   10.9220   -1.2730 C   0  0  2  0  0  0  0  0  0  0  0  0
    0.3740    9.7450   -2.0280 C   0  0  0  0  0  0  0  0  0  0  0  0
   -4.4770    8.2480   -0.2800 C   0  0  0  0  0  0  0  0  0  0  0  0
   -5.1670    7.9450   -1.5760 C   0  0  2  0  0  0  0  0  0  0  0  0
   -6.5320    7.2900   -1.6630 C   0  0  0  0  0  0  0  0  0  0  0  0
   -7.2890    6.8960   -0.4330 C   0  0  0  0  0  0  0  0  0  0  0  0
   -6.9110    6.5920   -2.9310 C   0  0  0  0  0  0  0  0  0  0  0  0
    2.5100   17.8120   -2.9520 O   0  0  0  0  0  0  0  0  0  0  0  0
   -6.3570    8.7080   -1.8120 O   0  0  0  0  0  0  0  0  0  0  0  0
   -1.0372    7.6987   -1.7860 H   0  0  0  0  0  0  0  0  0  0  0  0
   -2.5946    8.3115   -2.4383 H   0  0  0  0  0  0  0  0  0  0  0  0
   -1.1426    9.3690   -2.4383 H   0  0  0  0  0  0  0  0  0  0  0  0
   -1.8690    8.2926    0.2209 H   0  0  0  0  0  0  0  0  0  0  0  0
   -3.7011   10.1000    0.4863 H   0  0  0  0  0  0  0  0  0  0  0  0
   -3.8228    9.9800   -1.3344 H   0  0  0  0  0  0  0  0  0  0  0  0
   -3.8778    7.3748    0.0175 H   0  0  0  0  0  0  0  0  0  0  0  0
   -5.2461    8.4735    0.4734 H   0  0  0  0  0  0  0  0  0  0  0  0
   -4.2069    7.7163   -2.0616 H   0  0  0  0  0  0  0  0  0  0  0  0
   -6.7186    7.1929    0.4594 H   0  0  0  0  0  0  0  0  0  0  0  0
   -8.2670    7.3995   -0.4273 H   0  0  0  0  0  0  0  0  0  0  0  0
   -7.4377    5.8061   -0.4273 H   0  0  0  0  0  0  0  0  0  0  0  0
   -7.4233    5.6486   -2.6912 H   0  0  0  0  0  0  0  0  0  0  0  0
   -7.5835    7.2357   -3.5170 H   0  0  0  0  0  0  0  0  0  0  0  0
   -6.0049    6.3786   -3.5170 H   0  0  0  0  0  0  0  0  0  0  0  0
   -1.9992   11.0237    0.1370 H   0  0  0  0  0  0  0  0  0  0  0  0
   -0.5739   10.3047    1.9500 H   0  0  0  0  0  0  0  0  0  0  0  0
    0.0657    8.9403    1.0083 H   0  0  0  0  0  0  0  0  0  0  0  0
    1.4452   11.3856    1.5377 H   0  0  0  0  0  0  0  0  0  0  0  0
    1.9331   10.2219    0.3082 H   0  0  0  0  0  0  0  0  0  0  0  0
    0.0294   12.8231    1.4173 H   0  0  0  0  0  0  0  0  0  0  0  0
    0.3831   13.9583    0.0709 H   0  0  0  0  0  0  0  0  0  0  0  0
   -1.1444   13.0131    0.0709 H   0  0  0  0  0  0  0  0  0  0  0  0
    2.2376   11.4756   -1.7423 H   0  0  0  0  0  0  0  0  0  0  0  0
    2.9672   12.8317    0.3231 H   0  0  0  0  0  0  0  0  0  0  0  0
    3.7502   13.1045   -1.3205 H   0  0  0  0  0  0  0  0  0  0  0  0
    3.2103   15.2656    0.0875 H   0  0  0  0  0  0  0  0  0  0  0  0
   -0.1949   14.5687   -1.9646 H   0  0  0  0  0  0  0  0  0  0  0  0
    1.7958   15.5561   -4.0997 H   0  0  0  0  0  0  0  0  0  0  0  0
    0.0671   15.0554   -4.3667 H   0  0  0  0  0  0  0  0  0  0  0  0
    0.3375   17.5155   -4.3458 H   0  0  0  0  0  0  0  0  0  0  0  0
   -0.7123   16.9088   -3.0056 H   0  0  0  0  0  0  0  0  0  0  0  0
    0.7482   18.6015   -2.1336 H   0  0  0  0  0  0  0  0  0  0  0  0
    3.0010   18.4270   -2.3820 H   0  0  0  0  0  0  0  0  0  0  0  0
    0.1802   16.9053    0.8037 H   0  0  0  0  0  0  0  0  0  0  0  0
   -0.5438   17.8407   -0.5483 H   0  0  0  0  0  0  0  0  0  0  0  0
   -0.6332   16.0466   -0.5483 H   0  0  0  0  0  0  0  0  0  0  0  0
    2.1318   17.4076    0.9049 H   0  0  0  0  0  0  0  0  0  0  0  0
    3.3772   17.1816   -0.3697 H   0  0  0  0  0  0  0  0  0  0  0  0
    2.3491   18.6546   -0.3697 H   0  0  0  0  0  0  0  0  0  0  0  0
    3.3053   13.0122   -3.2496 H   0  0  0  0  0  0  0  0  0  0  0  0
    2.1842   12.1799   -4.3797 H   0  0  0  0  0  0  0  0  0  0  0  0
    2.2920   13.9729   -4.3797 H   0  0  0  0  0  0  0  0  0  0  0  0
   -0.5970   13.1435   -3.9112 H   0  0  0  0  0  0  0  0  0  0  0  0
    0.3659   11.5608   -3.8681 H   0  0  0  0  0  0  0  0  0  0  0  0
   -1.6028   12.5839   -1.8030 H   0  0  0  0  0  0  0  0  0  0  0  0
   -1.7458   11.1395   -2.8803 H   0  0  0  0  0  0  0  0  0  0  0  0
    0.7964    9.0408   -1.2960 H   0  0  0  0  0  0  0  0  0  0  0  0
   -0.3595    9.2218   -2.6591 H   0  0  0  0  0  0  0  0  0  0  0  0
    1.1809   10.1458   -2.6591 H   0  0  0  0  0  0  0  0  0  0  0  0
  1 12  1  0  0  0  0
  1 33  1  0  0  0  0
  1 34  1  0  0  0  0
  1 35  1  0  0  0  0
  2  3  1  0  0  0  0
  2 48  1  0  0  0  0
  3  4  1  0  0  0  0
  3 49  1  0  0  0  0
  3 50  1  0  0  0  0
  4  5  1  0  0  0  0
  4 51  1  0  0  0  0
  4 52  1  0  0  0  0
  5  6  1  0  0  0  0
  5  7  1  0  0  0  0
  6 53  1  0  0  0  0
  6 54  1  0  0  0  0
  6 55  1  0  0  0  0
  7  8  1  0  0  0  0
  7 56  1  0  0  0  0
  8  9  1  0  0  0  0
  8 57  1  0  0  0  0
  8 58  1  0  0  0  0
  9 10  2  0  0  0  0
  9 59  1  0  0  0  0
 10 11  1  0  0  0  0
 11 13  1  0  0  0  0
 11 19  1  0  0  0  0
 11 60  1  0  0  0  0
  2 12  1  0  0  0  0
 12 22  1  0  0  0  0
 12 36  1  0  0  0  0
 13 14  1  0  0  0  0
 13 61  1  0  0  0  0
 13 62  1  0  0  0  0
 14 15  1  0  0  0  0
 14 63  1  0  0  0  0
 14 64  1  0  0  0  0
 15 16  1  0  0  0  0
 15 31  1  0  0  0  0
 15 65  1  0  0  0  0
 10 16  1  0  0  0  0
 16 17  1  0  0  0  0
 16 18  1  0  0  0  0
 17 67  1  0  0  0  0
 17 68  1  0  0  0  0
 17 69  1  0  0  0  0
 18 70  1  0  0  0  0
 18 71  1  0  0  0  0
 18 72  1  0  0  0  0
  7 19  1  0  0  0  0
 19 20  1  0  0  0  0
 19 21  1  0  0  0  0
 20 73  1  0  0  0  0
 20 74  1  0  0  0  0
 20 75  1  0  0  0  0
 21 23  1  0  0  0  0
 21 76  1  0  0  0  0
 21 77  1  0  0  0  0
 22 26  1  0  0  0  0
 22 37  1  0  0  0  0
 22 38  1  0  0  0  0
 23 24  1  0  0  0  0
 23 78  1  0  0  0  0
 23 79  1  0  0  0  0
  2 24  1  0  0  0  0
  5 24  1  0  0  0  0
 24 25  1  0  0  0  0
 25 80  1  0  0  0  0
 25 81  1  0  0  0  0
 25 82  1  0  0  0  0
 26 27  1  0  0  0  0
 26 39  1  0  0  0  0
 26 40  1  0  0  0  0
 27 32  1  0  0  0  0
 27 41  1  0  0  0  0
 27 28  1  0  0  0  0
 28 29  1  0  0  0  0
 28 30  1  0  0  0  0
 29 42  1  0  0  0  0
 29 43  1  0  0  0  0
 29 44  1  0  0  0  0
 30 45  1  0  0  0  0
 30 46  1  0  0  0  0
 30 47  1  0  0  0  0
 31 66  1  0  0  0  0
 28 32  1  0  0  0  0
M  END
$$$$
