EPH_relaxed_0001_pdb2pqr_Repair_242_r2_0001_out
  PyMOL3.1          3D                             0

 82 86  0  0  1  0  0  0  0  0999 V2000
   -1.7120    8.5880   -1.8710 C   0  0  0  0  0  0  0  0  0  0  0  0
   -1.2400   10.3210   -0.1290 C   0  0  1  0  0  0  0  0  0  0  0  0
   -0.2180   10.0200    0.9990 C   0  0  0  0  0  0  0  0  0  0  0  0
    1.0540   10.8480    0.6830 C   0  0  0  0  0  0  0  0  0  0  0  0
    0.6100   11.8400   -0.4170 C   0  0  1  0  0  0  0  0  0  0  0  0
   -0.1040   12.9970    0.3510 C   0  0  0  0  0  0  0  0  0  0  0  0
    1.7380   12.3810   -1.3560 C   0  0  2  0  0  0  0  0  0  0  0  0
    2.8340   13.2000   -0.6540 C   0  0  0  0  0  0  0  0  0  0  0  0
    2.5820   14.6700   -0.5770 C   0  0  0  0  0  0  0  0  0  0  0  0
    1.6650   15.3440   -1.2950 C   0  0  0  0  0  0  0  0  0  0  0  0
    0.8290   14.6360   -2.3700 C   0  0  1  0  0  0  0  0  0  0  0  0
   -2.0960    9.1100   -0.4840 C   0  0  2  0  0  0  0  0  0  0  0  0
    0.8130   15.4950   -3.6620 C   0  0  0  0  0  0  0  0  0  0  0  0
    0.3460   16.9250   -3.4080 C   0  0  0  0  0  0  0  0  0  0  0  0
    1.2360   17.6150   -2.3770 C   0  0  2  0  0  0  0  0  0  0  0  0
    1.3380   16.8360   -1.0360 C   0  0  0  0  0  0  0  0  0  0  0  0
   -0.0150   16.9130   -0.2850 C   0  0  0  0  0  0  0  0  0  0  0  0
    2.3750   17.5630   -0.1380 C   0  0  0  0  0  0  0  0  0  0  0  0
    1.2050   13.1180   -2.6510 C   0  0  1  0  0  0  0  0  0  0  0  0
    2.3460   13.0390   -3.7100 C   0  0  0  0  0  0  0  0  0  0  0  0
   -0.0390   12.3900   -3.2840 C   0  0  0  0  0  0  0  0  0  0  0  0
   -3.5910    9.4770   -0.3950 C   0  0  0  0  0  0  0  0  0  0  0  0
   -1.0560   11.7730   -2.3050 C   0  0  0  0  0  0  0  0  0  0  0  0
   -0.3510   10.9160   -1.2500 C   0  0  2  0  0  0  0  0  0  0  0  0
    0.3580    9.7320   -1.9910 C   0  0  0  0  0  0  0  0  0  0  0  0
   -4.5130    8.2660   -0.2350 C   0  0  0  0  0  0  0  0  0  0  0  0
   -5.2060    7.9240   -1.5190 C   0  0  2  0  0  0  0  0  0  0  0  0
   -6.6060    7.3420   -1.5850 C   0  0  0  0  0  0  0  0  0  0  0  0
   -7.3970    7.0690   -0.3440 C   0  0  0  0  0  0  0  0  0  0  0  0
   -7.0110    6.5900   -2.8140 C   0  0  0  0  0  0  0  0  0  0  0  0
    2.5430   17.7830   -2.9360 O   0  0  0  0  0  0  0  0  0  0  0  0
   -6.3480    8.7360   -1.8180 O   0  0  0  0  0  0  0  0  0  0  0  0
   -1.0633    7.7061   -1.7642 H   0  0  0  0  0  0  0  0  0  0  0  0
   -2.6219    8.3092   -2.4227 H   0  0  0  0  0  0  0  0  0  0  0  0
   -1.1749    9.3736   -2.4227 H   0  0  0  0  0  0  0  0  0  0  0  0
   -1.9116    8.3001    0.2372 H   0  0  0  0  0  0  0  0  0  0  0  0
   -3.7349   10.1399    0.4709 H   0  0  0  0  0  0  0  0  0  0  0  0
   -3.8600    9.9627   -1.3446 H   0  0  0  0  0  0  0  0  0  0  0  0
   -3.9138    7.4019    0.0879 H   0  0  0  0  0  0  0  0  0  0  0  0
   -5.2800    8.5152    0.5130 H   0  0  0  0  0  0  0  0  0  0  0  0
   -4.2552    7.6128   -1.9763 H   0  0  0  0  0  0  0  0  0  0  0  0
   -6.7779    7.2827    0.5398 H   0  0  0  0  0  0  0  0  0  0  0  0
   -8.2902    7.7109   -0.3299 H   0  0  0  0  0  0  0  0  0  0  0  0
   -7.7042    6.0129   -0.3299 H   0  0  0  0  0  0  0  0  0  0  0  0
   -7.5140    5.6560   -2.5232 H   0  0  0  0  0  0  0  0  0  0  0  0
   -7.6991    7.2065   -3.4110 H   0  0  0  0  0  0  0  0  0  0  0  0
   -6.1176    6.3548   -3.4110 H   0  0  0  0  0  0  0  0  0  0  0  0
   -2.0324   11.0344    0.1417 H   0  0  0  0  0  0  0  0  0  0  0  0
   -0.6313   10.3178    1.9739 H   0  0  0  0  0  0  0  0  0  0  0  0
    0.0121    8.9454    1.0469 H   0  0  0  0  0  0  0  0  0  0  0  0
    1.3979   11.3882    1.5774 H   0  0  0  0  0  0  0  0  0  0  0  0
    1.8941   10.2155    0.3601 H   0  0  0  0  0  0  0  0  0  0  0  0
   -0.0038   12.8346    1.4343 H   0  0  0  0  0  0  0  0  0  0  0  0
    0.3587   13.9574    0.0798 H   0  0  0  0  0  0  0  0  0  0  0  0
   -1.1699   13.0141    0.0798 H   0  0  0  0  0  0  0  0  0  0  0  0
    2.2275   11.4558   -1.6942 H   0  0  0  0  0  0  0  0  0  0  0  0
    2.9380   12.8189    0.3726 H   0  0  0  0  0  0  0  0  0  0  0  0
    3.7417   13.0786   -1.2634 H   0  0  0  0  0  0  0  0  0  0  0  0
    3.1978   15.2506    0.1257 H   0  0  0  0  0  0  0  0  0  0  0  0
   -0.1894   14.5574   -1.9617 H   0  0  0  0  0  0  0  0  0  0  0  0
    1.8308   15.5251   -4.0780 H   0  0  0  0  0  0  0  0  0  0  0  0
    0.1029   15.0313   -4.3625 H   0  0  0  0  0  0  0  0  0  0  0  0
    0.3843   17.4891   -4.3516 H   0  0  0  0  0  0  0  0  0  0  0  0
   -0.6826   16.8945   -3.0194 H   0  0  0  0  0  0  0  0  0  0  0  0
    0.7761   18.5860   -2.1412 H   0  0  0  0  0  0  0  0  0  0  0  0
    2.4930   18.5000   -3.5900 H   0  0  0  0  0  0  0  0  0  0  0  0
    0.1667   16.9027    0.7998 H   0  0  0  0  0  0  0  0  0  0  0  0
   -0.5351   17.8422   -0.5608 H   0  0  0  0  0  0  0  0  0  0  0  0
   -0.6372   16.0488   -0.5608 H   0  0  0  0  0  0  0  0  0  0  0  0
    2.1287   17.3903    0.9201 H   0  0  0  0  0  0  0  0  0  0  0  0
    3.3811   17.1715   -0.3489 H   0  0  0  0  0  0  0  0  0  0  0  0
    2.3499   18.6423   -0.3489 H   0  0  0  0  0  0  0  0  0  0  0  0
    3.3173   12.9717   -3.1981 H   0  0  0  0  0  0  0  0  0  0  0  0
    2.2009   12.1488   -4.3396 H   0  0  0  0  0  0  0  0  0  0  0  0
    2.3250   13.9408   -4.3396 H   0  0  0  0  0  0  0  0  0  0  0  0
   -0.5757   13.1250   -3.9018 H   0  0  0  0  0  0  0  0  0  0  0  0
    0.3788   11.5375   -3.8397 H   0  0  0  0  0  0  0  0  0  0  0  0
   -1.6074   12.5812   -1.8022 H   0  0  0  0  0  0  0  0  0  0  0  0
   -1.7457   11.1320   -2.8737 H   0  0  0  0  0  0  0  0  0  0  0  0
    0.7760    9.0339   -1.2507 H   0  0  0  0  0  0  0  0  0  0  0  0
   -0.3726    9.2039   -2.6213 H   0  0  0  0  0  0  0  0  0  0  0  0
    1.1685   10.1267   -2.6213 H   0  0  0  0  0  0  0  0  0  0  0  0
  1 12  1  0  0  0  0
  1 33  1  0  0  0  0
  1 34  1  0  0  0  0
  1 35  1  0  0  0  0
  2  3  1  0  0  0  0
  2 48  1  0  0  0  0
  3  4  1  0  0  0  0
  3 49  1  0  0  0  0
  3 50  1  0  0  0  0
  4  5  1  0  0  0  0
  4 51  1  0  0  0  0
  4 52  1  0  0  0  0
  5  6  1  0  0  0  0
  5  7  1  0  0  0  0
  6 53  1  0  0  0  0
  6 54  1  0  0  0  0
  6 55  1  0  0  0  0
  7  8  1  0  0  0  0
  7 56  1  0  0  0  0
  8  9  1  0  0  0  0
  8 57  1  0  0  0  0
  8 58  1  0  0  0  0
  9 10  2  0  0  0  0
  9 59  1  0  0  0  0
 10 11  1  0  0  0  0
 11 13  1  0  0  0  0
 11 19  1  0  0  0  0
 11 60  1  0  0  0  0
  2 12  1  0  0  0  0
 12 22  1  0  0  0  0
 12 36  1  0  0  0  0
 13 14  1  0  0  0  0
 13 61  1  0  0  0  0
 13 62  1  0  0  0  0
 14 15  1  0  0  0  0
 14 63  1  0  0  0  0
 14 64  1  0  0  0  0
 15 16  1  0  0  0  0
 15 31  1  0  0  0  0
 15 65  1  0  0  0  0
 10 16  1  0  0  0  0
 16 17  1  0  0  0  0
 16 18  1  0  0  0  0
 17 67  1  0  0  0  0
 17 68  1  0  0  0  0
 17 69  1  0  0  0  0
 18 70  1  0  0  0  0
 18 71  1  0  0  0  0
 18 72  1  0  0  0  0
  7 19  1  0  0  0  0
 19 20  1  0  0  0  0
 19 21  1  0  0  0  0
 20 73  1  0  0  0  0
 20 74  1  0  0  0  0
 20 75  1  0  0  0  0
 21 23  1  0  0  0  0
 21 76  1  0  0  0  0
 21 77  1  0  0  0  0
 22 26  1  0  0  0  0
 22 37  1  0  0  0  0
 22 38  1  0  0  0  0
 23 24  1  0  0  0  0
 23 78  1  0  0  0  0
 23 79  1  0  0  0  0
  2 24  1  0  0  0  0
  5 24  1  0  0  0  0
 24 25  1  0  0  0  0
 25 80  1  0  0  0  0
 25 81  1  0  0  0  0
 25 82  1  0  0  0  0
 26 27  1  0  0  0  0
 26 39  1  0  0  0  0
 26 40  1  0  0  0  0
 27 32  1  0  0  0  0
 27 41  1  0  0  0  0
 27 28  1  0  0  0  0
 28 29  1  0  0  0  0
 28 30  1  0  0  0  0
 29 42  1  0  0  0  0
 29 43  1  0  0  0  0
 29 44  1  0  0  0  0
 30 45  1  0  0  0  0
 30 46  1  0  0  0  0
 30 47  1  0  0  0  0
 31 66  1  0  0  0  0
 28 32  1  0  0  0  0
M  END
$$$$
