EPH_relaxed_0001_pdb2pqr_Repair_115_r2_0001_out
  PyMOL3.1          3D                             0

 82 86  0  0  1  0  0  0  0  0999 V2000
   -1.7100    8.5920   -1.8740 C   0  0  0  0  0  0  0  0  0  0  0  0
   -1.2290   10.3210   -0.1310 C   0  0  1  0  0  0  0  0  0  0  0  0
   -0.2000   10.0170    0.9900 C   0  0  0  0  0  0  0  0  0  0  0  0
    1.0700   10.8460    0.6680 C   0  0  0  0  0  0  0  0  0  0  0  0
    0.6190   11.8420   -0.4260 C   0  0  1  0  0  0  0  0  0  0  0  0
   -0.0900   12.9960    0.3510 C   0  0  0  0  0  0  0  0  0  0  0  0
    1.7400   12.3850   -1.3700 C   0  0  2  0  0  0  0  0  0  0  0  0
    2.8420   13.2020   -0.6730 C   0  0  0  0  0  0  0  0  0  0  0  0
    2.5900   14.6710   -0.5900 C   0  0  0  0  0  0  0  0  0  0  0  0
    1.6680   15.3480   -1.3000 C   0  0  0  0  0  0  0  0  0  0  0  0
    0.8250   14.6440   -2.3710 C   0  0  1  0  0  0  0  0  0  0  0  0
   -2.0870    9.1120   -0.4840 C   0  0  2  0  0  0  0  0  0  0  0  0
    0.8000   15.5070   -3.6600 C   0  0  0  0  0  0  0  0  0  0  0  0
    0.3350   16.9360   -3.3980 C   0  0  0  0  0  0  0  0  0  0  0  0
    1.2330   17.6220   -2.3710 C   0  0  2  0  0  0  0  0  0  0  0  0
    1.3430   16.8390   -1.0330 C   0  0  0  0  0  0  0  0  0  0  0  0
   -0.0050   16.9140   -0.2740 C   0  0  0  0  0  0  0  0  0  0  0  0
    2.3850   17.5640   -0.1400 C   0  0  0  0  0  0  0  0  0  0  0  0
    1.1990   13.1270   -2.6590 C   0  0  1  0  0  0  0  0  0  0  0  0
    2.3340   13.0510   -3.7260 C   0  0  0  0  0  0  0  0  0  0  0  0
   -0.0500   12.4010   -3.2870 C   0  0  0  0  0  0  0  0  0  0  0  0
   -3.5820    9.4800   -0.3880 C   0  0  0  0  0  0  0  0  0  0  0  0
   -1.0600   11.7800   -2.3030 C   0  0  0  0  0  0  0  0  0  0  0  0
   -0.3480   10.9200   -1.2550 C   0  0  2  0  0  0  0  0  0  0  0  0
    0.3560    9.7380   -2.0050 C   0  0  0  0  0  0  0  0  0  0  0  0
   -4.5050    8.2690   -0.2350 C   0  0  0  0  0  0  0  0  0  0  0  0
   -5.2060    7.9400   -1.5180 C   0  0  2  0  0  0  0  0  0  0  0  0
   -6.6030    7.3510   -1.5820 C   0  0  0  0  0  0  0  0  0  0  0  0
   -7.3820    7.0560   -0.3390 C   0  0  0  0  0  0  0  0  0  0  0  0
   -7.0130    6.6140   -2.8180 C   0  0  0  0  0  0  0  0  0  0  0  0
    2.5350   17.7920   -2.9380 O   0  0  0  0  0  0  0  0  0  0  0  0
   -6.3550    8.7500   -1.7970 O   0  0  0  0  0  0  0  0  0  0  0  0
   -1.0671    7.7053   -1.7718 H   0  0  0  0  0  0  0  0  0  0  0  0
   -2.6232    8.3214   -2.4244 H   0  0  0  0  0  0  0  0  0  0  0  0
   -1.1689    9.3758   -2.4244 H   0  0  0  0  0  0  0  0  0  0  0  0
   -1.8997    8.3010    0.2352 H   0  0  0  0  0  0  0  0  0  0  0  0
   -3.7228   10.1363    0.4835 H   0  0  0  0  0  0  0  0  0  0  0  0
   -3.8530    9.9734   -1.3331 H   0  0  0  0  0  0  0  0  0  0  0  0
   -3.9053    7.4009    0.0762 H   0  0  0  0  0  0  0  0  0  0  0  0
   -5.2676    8.5126    0.5194 H   0  0  0  0  0  0  0  0  0  0  0  0
   -4.2570    7.6400   -1.9865 H   0  0  0  0  0  0  0  0  0  0  0  0
   -6.7672    7.2888    0.5429 H   0  0  0  0  0  0  0  0  0  0  0  0
   -8.2938    7.6711   -0.3231 H   0  0  0  0  0  0  0  0  0  0  0  0
   -7.6577    5.9912   -0.3231 H   0  0  0  0  0  0  0  0  0  0  0  0
   -7.5299    5.6848   -2.5363 H   0  0  0  0  0  0  0  0  0  0  0  0
   -7.6901    7.2443   -3.4131 H   0  0  0  0  0  0  0  0  0  0  0  0
   -6.1204    6.3711   -3.4131 H   0  0  0  0  0  0  0  0  0  0  0  0
   -2.0199   11.0332    0.1468 H   0  0  0  0  0  0  0  0  0  0  0  0
   -0.6072   10.3123    1.9683 H   0  0  0  0  0  0  0  0  0  0  0  0
    0.0304    8.9423    1.0339 H   0  0  0  0  0  0  0  0  0  0  0  0
    1.4200   11.3832    1.5618 H   0  0  0  0  0  0  0  0  0  0  0  0
    1.9076   10.2143    0.3373 H   0  0  0  0  0  0  0  0  0  0  0  0
    0.0137   12.8273    1.4330 H   0  0  0  0  0  0  0  0  0  0  0  0
    0.3737   13.9570    0.0837 H   0  0  0  0  0  0  0  0  0  0  0  0
   -1.1568   13.0167    0.0837 H   0  0  0  0  0  0  0  0  0  0  0  0
    2.2262   11.4601   -1.7138 H   0  0  0  0  0  0  0  0  0  0  0  0
    2.9535   12.8177    0.3516 H   0  0  0  0  0  0  0  0  0  0  0  0
    3.7455   13.0823   -1.2889 H   0  0  0  0  0  0  0  0  0  0  0  0
    3.2102   15.2493    0.1106 H   0  0  0  0  0  0  0  0  0  0  0  0
   -0.1907   14.5643   -1.9562 H   0  0  0  0  0  0  0  0  0  0  0  0
    1.8149   15.5384   -4.0831 H   0  0  0  0  0  0  0  0  0  0  0  0
    0.0850   15.0456   -4.3570 H   0  0  0  0  0  0  0  0  0  0  0  0
    0.3665   17.5033   -4.3399 H   0  0  0  0  0  0  0  0  0  0  0  0
   -0.6909   16.9046   -3.0023 H   0  0  0  0  0  0  0  0  0  0  0  0
    0.7757   18.5927   -2.1289 H   0  0  0  0  0  0  0  0  0  0  0  0
    3.1660   17.8830   -2.2040 H   0  0  0  0  0  0  0  0  0  0  0  0
    0.1833   16.9035    0.8097 H   0  0  0  0  0  0  0  0  0  0  0  0
   -0.5280   17.8426   -0.5463 H   0  0  0  0  0  0  0  0  0  0  0  0
   -0.6277   16.0491   -0.5463 H   0  0  0  0  0  0  0  0  0  0  0  0
    2.1414   17.3945    0.9192 H   0  0  0  0  0  0  0  0  0  0  0  0
    3.3890   17.1684   -0.3531 H   0  0  0  0  0  0  0  0  0  0  0  0
    2.3631   18.6429   -0.3531 H   0  0  0  0  0  0  0  0  0  0  0  0
    3.3088   12.9857   -3.2204 H   0  0  0  0  0  0  0  0  0  0  0  0
    2.1869   12.1607   -4.3551 H   0  0  0  0  0  0  0  0  0  0  0  0
    2.3069   13.9530   -4.3551 H   0  0  0  0  0  0  0  0  0  0  0  0
   -0.5911   13.1384   -3.8981 H   0  0  0  0  0  0  0  0  0  0  0  0
    0.3638   11.5510   -3.8494 H   0  0  0  0  0  0  0  0  0  0  0  0
   -1.6086   12.5863   -1.7941 H   0  0  0  0  0  0  0  0  0  0  0  0
   -1.7527   11.1401   -2.8693 H   0  0  0  0  0  0  0  0  0  0  0  0
    0.7748    9.0349   -1.2699 H   0  0  0  0  0  0  0  0  0  0  0  0
   -0.3779    9.2151   -2.6358 H   0  0  0  0  0  0  0  0  0  0  0  0
    1.1654   10.1342   -2.6358 H   0  0  0  0  0  0  0  0  0  0  0  0
  1 12  1  0  0  0  0
  1 33  1  0  0  0  0
  1 34  1  0  0  0  0
  1 35  1  0  0  0  0
  2  3  1  0  0  0  0
  2 48  1  0  0  0  0
  3  4  1  0  0  0  0
  3 49  1  0  0  0  0
  3 50  1  0  0  0  0
  4  5  1  0  0  0  0
  4 51  1  0  0  0  0
  4 52  1  0  0  0  0
  5  6  1  0  0  0  0
  5  7  1  0  0  0  0
  6 53  1  0  0  0  0
  6 54  1  0  0  0  0
  6 55  1  0  0  0  0
  7  8  1  0  0  0  0
  7 56  1  0  0  0  0
  8  9  1  0  0  0  0
  8 57  1  0  0  0  0
  8 58  1  0  0  0  0
  9 10  2  0  0  0  0
  9 59  1  0  0  0  0
 10 11  1  0  0  0  0
 11 13  1  0  0  0  0
 11 19  1  0  0  0  0
 11 60  1  0  0  0  0
  2 12  1  0  0  0  0
 12 22  1  0  0  0  0
 12 36  1  0  0  0  0
 13 14  1  0  0  0  0
 13 61  1  0  0  0  0
 13 62  1  0  0  0  0
 14 15  1  0  0  0  0
 14 63  1  0  0  0  0
 14 64  1  0  0  0  0
 15 16  1  0  0  0  0
 15 31  1  0  0  0  0
 15 65  1  0  0  0  0
 10 16  1  0  0  0  0
 16 17  1  0  0  0  0
 16 18  1  0  0  0  0
 17 67  1  0  0  0  0
 17 68  1  0  0  0  0
 17 69  1  0  0  0  0
 18 70  1  0  0  0  0
 18 71  1  0  0  0  0
 18 72  1  0  0  0  0
  7 19  1  0  0  0  0
 19 20  1  0  0  0  0
 19 21  1  0  0  0  0
 20 73  1  0  0  0  0
 20 74  1  0  0  0  0
 20 75  1  0  0  0  0
 21 23  1  0  0  0  0
 21 76  1  0  0  0  0
 21 77  1  0  0  0  0
 22 26  1  0  0  0  0
 22 37  1  0  0  0  0
 22 38  1  0  0  0  0
 23 24  1  0  0  0  0
 23 78  1  0  0  0  0
 23 79  1  0  0  0  0
  2 24  1  0  0  0  0
  5 24  1  0  0  0  0
 24 25  1  0  0  0  0
 25 80  1  0  0  0  0
 25 81  1  0  0  0  0
 25 82  1  0  0  0  0
 26 27  1  0  0  0  0
 26 39  1  0  0  0  0
 26 40  1  0  0  0  0
 27 32  1  0  0  0  0
 27 41  1  0  0  0  0
 27 28  1  0  0  0  0
 28 29  1  0  0  0  0
 28 30  1  0  0  0  0
 29 42  1  0  0  0  0
 29 43  1  0  0  0  0
 29 44  1  0  0  0  0
 30 45  1  0  0  0  0
 30 46  1  0  0  0  0
 30 47  1  0  0  0  0
 31 66  1  0  0  0  0
 28 32  1  0  0  0  0
M  END
$$$$
