EPH_relaxed_0001_pdb2pqr_Repair_185_r2_0001_out
  PyMOL3.1          3D                             0

 82 86  0  0  1  0  0  0  0  0999 V2000
   -1.6850    8.6120   -1.8930 C   0  0  0  0  0  0  0  0  0  0  0  0
   -1.2410   10.3360   -0.1360 C   0  0  1  0  0  0  0  0  0  0  0  0
   -0.2420   10.0510    1.0160 C   0  0  0  0  0  0  0  0  0  0  0  0
    1.0300   10.8880    0.7230 C   0  0  0  0  0  0  0  0  0  0  0  0
    0.6010   11.8710   -0.3910 C   0  0  1  0  0  0  0  0  0  0  0  0
   -0.1390   13.0250    0.3550 C   0  0  0  0  0  0  0  0  0  0  0  0
    1.7440   12.4170   -1.3090 C   0  0  2  0  0  0  0  0  0  0  0  0
    2.8180   13.2490   -0.5880 C   0  0  0  0  0  0  0  0  0  0  0  0
    2.5510   14.7170   -0.5240 C   0  0  0  0  0  0  0  0  0  0  0  0
    1.6430   15.3800   -1.2650 C   0  0  0  0  0  0  0  0  0  0  0  0
    0.8380   14.6590   -2.3540 C   0  0  1  0  0  0  0  0  0  0  0  0
   -2.0780    9.1160   -0.5020 C   0  0  2  0  0  0  0  0  0  0  0  0
    0.8410   15.5110   -3.6500 C   0  0  0  0  0  0  0  0  0  0  0  0
    0.3560   16.9380   -3.4140 C   0  0  0  0  0  0  0  0  0  0  0  0
    1.2180   17.6400   -2.3680 C   0  0  2  0  0  0  0  0  0  0  0  0
    1.2970   16.8690   -1.0210 C   0  0  0  0  0  0  0  0  0  0  0  0
   -0.0720   16.9380   -0.3000 C   0  0  0  0  0  0  0  0  0  0  0  0
    2.3080   17.6110   -0.1050 C   0  0  0  0  0  0  0  0  0  0  0  0
    1.2320   13.1420   -2.6190 C   0  0  1  0  0  0  0  0  0  0  0  0
    2.3970   13.0680   -3.6520 C   0  0  0  0  0  0  0  0  0  0  0  0
    0.0090   12.4000   -3.2750 C   0  0  0  0  0  0  0  0  0  0  0  0
   -3.5790    9.4600   -0.4120 C   0  0  0  0  0  0  0  0  0  0  0  0
   -1.0240   11.7790   -2.3150 C   0  0  0  0  0  0  0  0  0  0  0  0
   -0.3330   10.9340   -1.2400 C   0  0  2  0  0  0  0  0  0  0  0  0
    0.4020    9.7520   -1.9590 C   0  0  0  0  0  0  0  0  0  0  0  0
   -4.4850    8.2330   -0.2890 C   0  0  0  0  0  0  0  0  0  0  0  0
   -5.1840    7.9280   -1.5800 C   0  0  2  0  0  0  0  0  0  0  0  0
   -6.5600    7.2940   -1.6570 C   0  0  0  0  0  0  0  0  0  0  0  0
   -7.3190    6.9250   -0.4220 C   0  0  0  0  0  0  0  0  0  0  0  0
   -6.9540    6.5900   -2.9180 C   0  0  0  0  0  0  0  0  0  0  0  0
    2.5350   17.8180   -2.8990 O   0  0  0  0  0  0  0  0  0  0  0  0
   -6.3620    8.7070   -1.8220 O   0  0  0  0  0  0  0  0  0  0  0  0
   -1.0114    7.7481   -1.7932 H   0  0  0  0  0  0  0  0  0  0  0  0
   -2.5889    8.3106   -2.4427 H   0  0  0  0  0  0  0  0  0  0  0  0
   -1.1723    9.4151   -2.4427 H   0  0  0  0  0  0  0  0  0  0  0  0
   -1.8822    8.3030    0.2126 H   0  0  0  0  0  0  0  0  0  0  0  0
   -3.7368   10.0980    0.4701 H   0  0  0  0  0  0  0  0  0  0  0  0
   -3.8495    9.9666   -1.3502 H   0  0  0  0  0  0  0  0  0  0  0  0
   -3.8730    7.3654   -0.0014 H   0  0  0  0  0  0  0  0  0  0  0  0
   -5.2494    8.4462    0.4727 H   0  0  0  0  0  0  0  0  0  0  0  0
   -4.2287    7.6790   -2.0651 H   0  0  0  0  0  0  0  0  0  0  0  0
   -6.7350    7.2089    0.4659 H   0  0  0  0  0  0  0  0  0  0  0  0
   -8.2828    7.4551   -0.4118 H   0  0  0  0  0  0  0  0  0  0  0  0
   -7.4974    5.8396   -0.4118 H   0  0  0  0  0  0  0  0  0  0  0  0
   -7.4772    5.6552   -2.6680 H   0  0  0  0  0  0  0  0  0  0  0  0
   -7.6209    7.2374   -3.5063 H   0  0  0  0  0  0  0  0  0  0  0  0
   -6.0534    6.3601   -3.5063 H   0  0  0  0  0  0  0  0  0  0  0  0
   -2.0460   11.0433    0.1123 H   0  0  0  0  0  0  0  0  0  0  0  0
   -0.6794   10.3514    1.9796 H   0  0  0  0  0  0  0  0  0  0  0  0
   -0.0039    8.9787    1.0758 H   0  0  0  0  0  0  0  0  0  0  0  0
    1.3505   11.4353    1.6218 H   0  0  0  0  0  0  0  0  0  0  0  0
    1.8820   10.2610    0.4212 H   0  0  0  0  0  0  0  0  0  0  0  0
   -0.0453   12.8788    1.4412 H   0  0  0  0  0  0  0  0  0  0  0  0
    0.3094   13.9896    0.0748 H   0  0  0  0  0  0  0  0  0  0  0  0
   -1.2027   13.0199    0.0748 H   0  0  0  0  0  0  0  0  0  0  0  0
    2.2489   11.4947   -1.6321 H   0  0  0  0  0  0  0  0  0  0  0  0
    2.9037   12.8738    0.4425 H   0  0  0  0  0  0  0  0  0  0  0  0
    3.7396   13.1326   -1.1771 H   0  0  0  0  0  0  0  0  0  0  0  0
    3.1464   15.3065    0.1887 H   0  0  0  0  0  0  0  0  0  0  0  0
   -0.1879   14.5730   -1.9666 H   0  0  0  0  0  0  0  0  0  0  0  0
    1.8670   15.5482   -4.0450 H   0  0  0  0  0  0  0  0  0  0  0  0
    0.1495   15.0372   -4.3623 H   0  0  0  0  0  0  0  0  0  0  0  0
    0.4097   17.4977   -4.3595 H   0  0  0  0  0  0  0  0  0  0  0  0
   -0.6806   16.9010   -3.0479 H   0  0  0  0  0  0  0  0  0  0  0  0
    0.7449   18.6082   -2.1473 H   0  0  0  0  0  0  0  0  0  0  0  0
    2.4800   17.7100   -3.8640 H   0  0  0  0  0  0  0  0  0  0  0  0
    0.0861   16.9300    0.7886 H   0  0  0  0  0  0  0  0  0  0  0  0
   -0.5920   17.8635   -0.5882 H   0  0  0  0  0  0  0  0  0  0  0  0
   -0.6824   16.0695   -0.5882 H   0  0  0  0  0  0  0  0  0  0  0  0
    2.0536   17.4243    0.9487 H   0  0  0  0  0  0  0  0  0  0  0  0
    3.3247   17.2431   -0.3075 H   0  0  0  0  0  0  0  0  0  0  0  0
    2.2619   18.6912   -0.3075 H   0  0  0  0  0  0  0  0  0  0  0  0
    3.3569   13.0070   -3.1183 H   0  0  0  0  0  0  0  0  0  0  0  0
    2.2712   12.1760   -4.2833 H   0  0  0  0  0  0  0  0  0  0  0  0
    2.3850   13.9687   -4.2833 H   0  0  0  0  0  0  0  0  0  0  0  0
   -0.5204   13.1270   -3.9083 H   0  0  0  0  0  0  0  0  0  0  0  0
    0.4463   11.5484   -3.8168 H   0  0  0  0  0  0  0  0  0  0  0  0
   -1.5936   12.5847   -1.8287 H   0  0  0  0  0  0  0  0  0  0  0  0
   -1.6960   11.1290   -2.8946 H   0  0  0  0  0  0  0  0  0  0  0  0
    0.8254    9.0712   -1.2059 H   0  0  0  0  0  0  0  0  0  0  0  0
   -0.3144    9.2032   -2.5880 H   0  0  0  0  0  0  0  0  0  0  0  0
    1.2111   10.1517   -2.5880 H   0  0  0  0  0  0  0  0  0  0  0  0
  1 12  1  0  0  0  0
  1 33  1  0  0  0  0
  1 34  1  0  0  0  0
  1 35  1  0  0  0  0
  2  3  1  0  0  0  0
  2 48  1  0  0  0  0
  3  4  1  0  0  0  0
  3 49  1  0  0  0  0
  3 50  1  0  0  0  0
  4  5  1  0  0  0  0
  4 51  1  0  0  0  0
  4 52  1  0  0  0  0
  5  6  1  0  0  0  0
  5  7  1  0  0  0  0
  6 53  1  0  0  0  0
  6 54  1  0  0  0  0
  6 55  1  0  0  0  0
  7  8  1  0  0  0  0
  7 56  1  0  0  0  0
  8  9  1  0  0  0  0
  8 57  1  0  0  0  0
  8 58  1  0  0  0  0
  9 10  2  0  0  0  0
  9 59  1  0  0  0  0
 10 11  1  0  0  0  0
 11 13  1  0  0  0  0
 11 19  1  0  0  0  0
 11 60  1  0  0  0  0
  2 12  1  0  0  0  0
 12 22  1  0  0  0  0
 12 36  1  0  0  0  0
 13 14  1  0  0  0  0
 13 61  1  0  0  0  0
 13 62  1  0  0  0  0
 14 15  1  0  0  0  0
 14 63  1  0  0  0  0
 14 64  1  0  0  0  0
 15 16  1  0  0  0  0
 15 31  1  0  0  0  0
 15 65  1  0  0  0  0
 10 16  1  0  0  0  0
 16 17  1  0  0  0  0
 16 18  1  0  0  0  0
 17 67  1  0  0  0  0
 17 68  1  0  0  0  0
 17 69  1  0  0  0  0
 18 70  1  0  0  0  0
 18 71  1  0  0  0  0
 18 72  1  0  0  0  0
  7 19  1  0  0  0  0
 19 20  1  0  0  0  0
 19 21  1  0  0  0  0
 20 73  1  0  0  0  0
 20 74  1  0  0  0  0
 20 75  1  0  0  0  0
 21 23  1  0  0  0  0
 21 76  1  0  0  0  0
 21 77  1  0  0  0  0
 22 26  1  0  0  0  0
 22 37  1  0  0  0  0
 22 38  1  0  0  0  0
 23 24  1  0  0  0  0
 23 78  1  0  0  0  0
 23 79  1  0  0  0  0
  2 24  1  0  0  0  0
  5 24  1  0  0  0  0
 24 25  1  0  0  0  0
 25 80  1  0  0  0  0
 25 81  1  0  0  0  0
 25 82  1  0  0  0  0
 26 27  1  0  0  0  0
 26 39  1  0  0  0  0
 26 40  1  0  0  0  0
 27 32  1  0  0  0  0
 27 41  1  0  0  0  0
 27 28  1  0  0  0  0
 28 29  1  0  0  0  0
 28 30  1  0  0  0  0
 29 42  1  0  0  0  0
 29 43  1  0  0  0  0
 29 44  1  0  0  0  0
 30 45  1  0  0  0  0
 30 46  1  0  0  0  0
 30 47  1  0  0  0  0
 31 66  1  0  0  0  0
 28 32  1  0  0  0  0
M  END
$$$$
