EPH_relaxed_0001_pdb2pqr_Repair_412_r2_0001_out
  PyMOL3.1          3D                             0

 82 86  0  0  1  0  0  0  0  0999 V2000
   -1.6960    8.5800   -1.8670 C   0  0  0  0  0  0  0  0  0  0  0  0
   -1.2250   10.3130   -0.1250 C   0  0  1  0  0  0  0  0  0  0  0  0
   -0.2010   10.0140    1.0020 C   0  0  0  0  0  0  0  0  0  0  0  0
    1.0690   10.8430    0.6840 C   0  0  0  0  0  0  0  0  0  0  0  0
    0.6220   11.8360   -0.4150 C   0  0  1  0  0  0  0  0  0  0  0  0
   -0.0920   12.9910    0.3540 C   0  0  0  0  0  0  0  0  0  0  0  0
    1.7470   12.3780   -1.3560 C   0  0  2  0  0  0  0  0  0  0  0  0
    2.8440   13.1990   -0.6550 C   0  0  0  0  0  0  0  0  0  0  0  0
    2.5890   14.6680   -0.5770 C   0  0  0  0  0  0  0  0  0  0  0  0
    1.6700   15.3410   -1.2930 C   0  0  0  0  0  0  0  0  0  0  0  0
    0.8340   14.6330   -2.3670 C   0  0  1  0  0  0  0  0  0  0  0  0
   -2.0800    9.1020   -0.4790 C   0  0  2  0  0  0  0  0  0  0  0  0
    0.8140   15.4920   -3.6580 C   0  0  0  0  0  0  0  0  0  0  0  0
    0.3460   16.9210   -3.4030 C   0  0  0  0  0  0  0  0  0  0  0  0
    1.2370   17.6120   -2.3740 C   0  0  2  0  0  0  0  0  0  0  0  0
    1.3410   16.8320   -1.0330 C   0  0  0  0  0  0  0  0  0  0  0  0
   -0.0100   16.9070   -0.2800 C   0  0  0  0  0  0  0  0  0  0  0  0
    2.3780   17.5610   -0.1360 C   0  0  0  0  0  0  0  0  0  0  0  0
    1.2110   13.1150   -2.6490 C   0  0  1  0  0  0  0  0  0  0  0  0
    2.3520   13.0390   -3.7100 C   0  0  0  0  0  0  0  0  0  0  0  0
   -0.0330   12.3850   -3.2810 C   0  0  0  0  0  0  0  0  0  0  0  0
   -3.5750    9.4670   -0.3890 C   0  0  0  0  0  0  0  0  0  0  0  0
   -1.0470   11.7660   -2.3010 C   0  0  0  0  0  0  0  0  0  0  0  0
   -0.3390   10.9100   -1.2470 C   0  0  2  0  0  0  0  0  0  0  0  0
    0.3710    9.7270   -1.9890 C   0  0  0  0  0  0  0  0  0  0  0  0
   -4.4960    8.2540   -0.2300 C   0  0  0  0  0  0  0  0  0  0  0  0
   -5.2010    7.9220   -1.5100 C   0  0  2  0  0  0  0  0  0  0  0  0
   -6.6010    7.3390   -1.5680 C   0  0  0  0  0  0  0  0  0  0  0  0
   -7.3790    7.0530   -0.3220 C   0  0  0  0  0  0  0  0  0  0  0  0
   -7.0170    6.5980   -2.8000 C   0  0  0  0  0  0  0  0  0  0  0  0
    2.5420   17.7820   -2.9340 O   0  0  0  0  0  0  0  0  0  0  0  0
   -6.3470    8.7360   -1.7910 O   0  0  0  0  0  0  0  0  0  0  0  0
   -1.0472    7.6981   -1.7605 H   0  0  0  0  0  0  0  0  0  0  0  0
   -2.6060    8.3013   -2.4186 H   0  0  0  0  0  0  0  0  0  0  0  0
   -1.1590    9.3657   -2.4186 H   0  0  0  0  0  0  0  0  0  0  0  0
   -1.8946    8.2925    0.2424 H   0  0  0  0  0  0  0  0  0  0  0  0
   -3.7194   10.1287    0.4778 H   0  0  0  0  0  0  0  0  0  0  0  0
   -3.8449    9.9536   -1.3379 H   0  0  0  0  0  0  0  0  0  0  0  0
   -3.8938    7.3874    0.0805 H   0  0  0  0  0  0  0  0  0  0  0  0
   -5.2561    8.4974    0.5270 H   0  0  0  0  0  0  0  0  0  0  0  0
   -4.2544    7.6155   -1.9789 H   0  0  0  0  0  0  0  0  0  0  0  0
   -6.7592    7.2809    0.5577 H   0  0  0  0  0  0  0  0  0  0  0  0
   -8.2847    7.6770   -0.3039 H   0  0  0  0  0  0  0  0  0  0  0  0
   -7.6650    5.9910   -0.3039 H   0  0  0  0  0  0  0  0  0  0  0  0
   -7.5368    5.6720   -2.5130 H   0  0  0  0  0  0  0  0  0  0  0  0
   -7.6931    7.2283   -3.3963 H   0  0  0  0  0  0  0  0  0  0  0  0
   -6.1268    6.3490   -3.3963 H   0  0  0  0  0  0  0  0  0  0  0  0
   -2.0182   11.0248    0.1473 H   0  0  0  0  0  0  0  0  0  0  0  0
   -0.6134   10.3119    1.9773 H   0  0  0  0  0  0  0  0  0  0  0  0
    0.0306    8.9397    1.0503 H   0  0  0  0  0  0  0  0  0  0  0  0
    1.4142   11.3829    1.5780 H   0  0  0  0  0  0  0  0  0  0  0  0
    1.9088   10.2113    0.3589 H   0  0  0  0  0  0  0  0  0  0  0  0
    0.0090   12.8277    1.4371 H   0  0  0  0  0  0  0  0  0  0  0  0
    0.3698   13.9520    0.0835 H   0  0  0  0  0  0  0  0  0  0  0  0
   -1.1581   13.0075    0.0835 H   0  0  0  0  0  0  0  0  0  0  0  0
    2.2365   11.4534   -1.6958 H   0  0  0  0  0  0  0  0  0  0  0  0
    2.9507   12.8175    0.3712 H   0  0  0  0  0  0  0  0  0  0  0  0
    3.7510   13.0794   -1.2658 H   0  0  0  0  0  0  0  0  0  0  0  0
    3.2046   15.2493    0.1253 H   0  0  0  0  0  0  0  0  0  0  0  0
   -0.1836   14.5533   -1.9571 H   0  0  0  0  0  0  0  0  0  0  0  0
    1.8309   15.5234   -4.0763 H   0  0  0  0  0  0  0  0  0  0  0  0
    0.1027   15.0276   -4.3568 H   0  0  0  0  0  0  0  0  0  0  0  0
    0.3817   17.4852   -4.3466 H   0  0  0  0  0  0  0  0  0  0  0  0
   -0.6817   16.8892   -3.0122 H   0  0  0  0  0  0  0  0  0  0  0  0
    0.7772   18.5830   -2.1379 H   0  0  0  0  0  0  0  0  0  0  0  0
    2.7470   16.9840   -3.4500 H   0  0  0  0  0  0  0  0  0  0  0  0
    0.1736   16.8968    0.8045 H   0  0  0  0  0  0  0  0  0  0  0  0
   -0.5319   17.8355   -0.5548 H   0  0  0  0  0  0  0  0  0  0  0  0
   -0.6315   16.0420   -0.5548 H   0  0  0  0  0  0  0  0  0  0  0  0
    2.1328   17.3886    0.9224 H   0  0  0  0  0  0  0  0  0  0  0  0
    3.3844   17.1706   -0.3475 H   0  0  0  0  0  0  0  0  0  0  0  0
    2.3514   18.6402   -0.3475 H   0  0  0  0  0  0  0  0  0  0  0  0
    3.3240   12.9743   -3.1991 H   0  0  0  0  0  0  0  0  0  0  0  0
    2.2086   12.1484   -4.3395 H   0  0  0  0  0  0  0  0  0  0  0  0
    2.3280   13.9407   -4.3395 H   0  0  0  0  0  0  0  0  0  0  0  0
   -0.5719   13.1194   -3.8976 H   0  0  0  0  0  0  0  0  0  0  0  0
    0.3853   11.5337   -3.8380 H   0  0  0  0  0  0  0  0  0  0  0  0
   -1.5992   12.5730   -1.7973 H   0  0  0  0  0  0  0  0  0  0  0  0
   -1.7362   11.1237   -2.8689 H   0  0  0  0  0  0  0  0  0  0  0  0
    0.7900    9.0289   -1.2493 H   0  0  0  0  0  0  0  0  0  0  0  0
   -0.3593    9.1985   -2.6194 H   0  0  0  0  0  0  0  0  0  0  0  0
    1.1809   10.1229   -2.6194 H   0  0  0  0  0  0  0  0  0  0  0  0
  1 12  1  0  0  0  0
  1 33  1  0  0  0  0
  1 34  1  0  0  0  0
  1 35  1  0  0  0  0
  2  3  1  0  0  0  0
  2 48  1  0  0  0  0
  3  4  1  0  0  0  0
  3 49  1  0  0  0  0
  3 50  1  0  0  0  0
  4  5  1  0  0  0  0
  4 51  1  0  0  0  0
  4 52  1  0  0  0  0
  5  6  1  0  0  0  0
  5  7  1  0  0  0  0
  6 53  1  0  0  0  0
  6 54  1  0  0  0  0
  6 55  1  0  0  0  0
  7  8  1  0  0  0  0
  7 56  1  0  0  0  0
  8  9  1  0  0  0  0
  8 57  1  0  0  0  0
  8 58  1  0  0  0  0
  9 10  2  0  0  0  0
  9 59  1  0  0  0  0
 10 11  1  0  0  0  0
 11 13  1  0  0  0  0
 11 19  1  0  0  0  0
 11 60  1  0  0  0  0
  2 12  1  0  0  0  0
 12 22  1  0  0  0  0
 12 36  1  0  0  0  0
 13 14  1  0  0  0  0
 13 61  1  0  0  0  0
 13 62  1  0  0  0  0
 14 15  1  0  0  0  0
 14 63  1  0  0  0  0
 14 64  1  0  0  0  0
 15 16  1  0  0  0  0
 15 31  1  0  0  0  0
 15 65  1  0  0  0  0
 10 16  1  0  0  0  0
 16 17  1  0  0  0  0
 16 18  1  0  0  0  0
 17 67  1  0  0  0  0
 17 68  1  0  0  0  0
 17 69  1  0  0  0  0
 18 70  1  0  0  0  0
 18 71  1  0  0  0  0
 18 72  1  0  0  0  0
  7 19  1  0  0  0  0
 19 20  1  0  0  0  0
 19 21  1  0  0  0  0
 20 73  1  0  0  0  0
 20 74  1  0  0  0  0
 20 75  1  0  0  0  0
 21 23  1  0  0  0  0
 21 76  1  0  0  0  0
 21 77  1  0  0  0  0
 22 26  1  0  0  0  0
 22 37  1  0  0  0  0
 22 38  1  0  0  0  0
 23 24  1  0  0  0  0
 23 78  1  0  0  0  0
 23 79  1  0  0  0  0
  2 24  1  0  0  0  0
  5 24  1  0  0  0  0
 24 25  1  0  0  0  0
 25 80  1  0  0  0  0
 25 81  1  0  0  0  0
 25 82  1  0  0  0  0
 26 27  1  0  0  0  0
 26 39  1  0  0  0  0
 26 40  1  0  0  0  0
 27 32  1  0  0  0  0
 27 41  1  0  0  0  0
 27 28  1  0  0  0  0
 28 29  1  0  0  0  0
 28 30  1  0  0  0  0
 29 42  1  0  0  0  0
 29 43  1  0  0  0  0
 29 44  1  0  0  0  0
 30 45  1  0  0  0  0
 30 46  1  0  0  0  0
 30 47  1  0  0  0  0
 31 66  1  0  0  0  0
 28 32  1  0  0  0  0
M  END
$$$$
