EPH_relaxed_0001_pdb2pqr_Repair_416_r2_0001_out
  PyMOL3.1          3D                             0

 82 86  0  0  1  0  0  0  0  0999 V2000
   -1.6600    8.5840   -1.8700 C   0  0  0  0  0  0  0  0  0  0  0  0
   -1.1610   10.3150   -0.1340 C   0  0  1  0  0  0  0  0  0  0  0  0
   -0.1060   10.0070    0.9620 C   0  0  0  0  0  0  0  0  0  0  0  0
    1.1530   10.8430    0.6180 C   0  0  0  0  0  0  0  0  0  0  0  0
    0.6740   11.8450   -0.4580 C   0  0  1  0  0  0  0  0  0  0  0  0
   -0.0220   12.9910    0.3420 C   0  0  0  0  0  0  0  0  0  0  0  0
    1.7720   12.4000   -1.4240 C   0  0  2  0  0  0  0  0  0  0  0  0
    2.8850   13.2170   -0.7450 C   0  0  0  0  0  0  0  0  0  0  0  0
    2.6290   14.6850   -0.6460 C   0  0  0  0  0  0  0  0  0  0  0  0
    1.6890   15.3630   -1.3300 C   0  0  0  0  0  0  0  0  0  0  0  0
    0.8250   14.6630   -2.3870 C   0  0  1  0  0  0  0  0  0  0  0  0
   -2.0220    9.1050   -0.4760 C   0  0  2  0  0  0  0  0  0  0  0  0
    0.7680   15.5350   -3.6690 C   0  0  0  0  0  0  0  0  0  0  0  0
    0.3030   16.9600   -3.3860 C   0  0  0  0  0  0  0  0  0  0  0  0
    1.2200   17.6420   -2.3750 C   0  0  2  0  0  0  0  0  0  0  0  0
    1.3630   16.8500   -1.0450 C   0  0  0  0  0  0  0  0  0  0  0  0
    0.0330   16.9140   -0.2550 C   0  0  0  0  0  0  0  0  0  0  0  0
    2.4230   17.5730   -0.1700 C   0  0  0  0  0  0  0  0  0  0  0  0
    1.1980   13.1490   -2.6950 C   0  0  1  0  0  0  0  0  0  0  0  0
    2.3100   13.0860   -3.7870 C   0  0  0  0  0  0  0  0  0  0  0  0
   -0.0600   12.4220   -3.3000 C   0  0  0  0  0  0  0  0  0  0  0  0
   -3.5150    9.4710   -0.3630 C   0  0  0  0  0  0  0  0  0  0  0  0
   -1.0460   11.7900   -2.2990 C   0  0  0  0  0  0  0  0  0  0  0  0
   -0.3070   10.9260   -1.2730 C   0  0  2  0  0  0  0  0  0  0  0  0
    0.3850    9.7520   -2.0460 C   0  0  0  0  0  0  0  0  0  0  0  0
   -4.4400    8.2560   -0.2500 C   0  0  0  0  0  0  0  0  0  0  0  0
   -5.1270    7.9590   -1.5490 C   0  0  2  0  0  0  0  0  0  0  0  0
   -6.4850    7.2890   -1.6430 C   0  0  0  0  0  0  0  0  0  0  0  0
   -7.2370    6.8740   -0.4170 C   0  0  0  0  0  0  0  0  0  0  0  0
   -6.8570    6.6020   -2.9190 C   0  0  0  0  0  0  0  0  0  0  0  0
    2.5090   17.8220   -2.9690 O   0  0  0  0  0  0  0  0  0  0  0  0
   -6.3260    8.7110   -1.7770 O   0  0  0  0  0  0  0  0  0  0  0  0
   -1.0347    7.6841   -1.7741 H   0  0  0  0  0  0  0  0  0  0  0  0
   -2.5802    8.3344   -2.4185 H   0  0  0  0  0  0  0  0  0  0  0  0
   -1.1051    9.3593   -2.4185 H   0  0  0  0  0  0  0  0  0  0  0  0
   -1.8259    8.2948    0.2418 H   0  0  0  0  0  0  0  0  0  0  0  0
   -3.6525   10.0964    0.5314 H   0  0  0  0  0  0  0  0  0  0  0  0
   -3.7878    9.9975   -1.2895 H   0  0  0  0  0  0  0  0  0  0  0  0
   -3.8437    7.3804    0.0462 H   0  0  0  0  0  0  0  0  0  0  0  0
   -5.2108    8.4808    0.5019 H   0  0  0  0  0  0  0  0  0  0  0  0
   -4.1644    7.7465   -2.0370 H   0  0  0  0  0  0  0  0  0  0  0  0
   -6.6775    7.1827    0.4784 H   0  0  0  0  0  0  0  0  0  0  0  0
   -8.2270    7.3535   -0.4142 H   0  0  0  0  0  0  0  0  0  0  0  0
   -7.3591    5.7808   -0.4142 H   0  0  0  0  0  0  0  0  0  0  0  0
   -7.3693    5.6559   -2.6902 H   0  0  0  0  0  0  0  0  0  0  0  0
   -7.5274    7.2502   -3.5025 H   0  0  0  0  0  0  0  0  0  0  0  0
   -5.9478    6.3949   -3.5025 H   0  0  0  0  0  0  0  0  0  0  0  0
   -1.9485   11.0221    0.1658 H   0  0  0  0  0  0  0  0  0  0  0  0
   -0.4925   10.2937    1.9511 H   0  0  0  0  0  0  0  0  0  0  0  0
    0.1294    8.9329    0.9930 H   0  0  0  0  0  0  0  0  0  0  0  0
    1.5209   11.3750    1.5077 H   0  0  0  0  0  0  0  0  0  0  0  0
    1.9854   10.2171    0.2640 H   0  0  0  0  0  0  0  0  0  0  0  0
    0.0904   12.8059    1.4205 H   0  0  0  0  0  0  0  0  0  0  0  0
    0.4443   13.9534    0.0846 H   0  0  0  0  0  0  0  0  0  0  0  0
   -1.0910   13.0210    0.0846 H   0  0  0  0  0  0  0  0  0  0  0  0
    2.2551   11.4806   -1.7864 H   0  0  0  0  0  0  0  0  0  0  0  0
    3.0200   12.8260    0.2743 H   0  0  0  0  0  0  0  0  0  0  0  0
    3.7754   13.1057   -1.3812 H   0  0  0  0  0  0  0  0  0  0  0  0
    3.2625   15.2610    0.0446 H   0  0  0  0  0  0  0  0  0  0  0  0
   -0.1805   14.5761   -1.9495 H   0  0  0  0  0  0  0  0  0  0  0  0
    1.7731   15.5738   -4.1142 H   0  0  0  0  0  0  0  0  0  0  0  0
    0.0399   15.0756   -4.3536 H   0  0  0  0  0  0  0  0  0  0  0  0
    0.3111   17.5343   -4.3241 H   0  0  0  0  0  0  0  0  0  0  0  0
   -0.7136   16.9211   -2.9677 H   0  0  0  0  0  0  0  0  0  0  0  0
    0.7637   18.6089   -2.1163 H   0  0  0  0  0  0  0  0  0  0  0  0
    2.9840   16.9760   -2.9030 H   0  0  0  0  0  0  0  0  0  0  0  0
    0.2466   16.9037    0.8240 H   0  0  0  0  0  0  0  0  0  0  0  0
   -0.5031   17.8390   -0.5139 H   0  0  0  0  0  0  0  0  0  0  0  0
   -0.5894   16.0448   -0.5139 H   0  0  0  0  0  0  0  0  0  0  0  0
    2.1905   17.4144    0.8934 H   0  0  0  0  0  0  0  0  0  0  0  0
    3.4207   17.1663   -0.3918 H   0  0  0  0  0  0  0  0  0  0  0  0
    2.4085   18.6503   -0.3918 H   0  0  0  0  0  0  0  0  0  0  0  0
    3.2963   13.0301   -3.3032 H   0  0  0  0  0  0  0  0  0  0  0  0
    2.1582   12.1950   -4.4140 H   0  0  0  0  0  0  0  0  0  0  0  0
    2.2598   13.9884   -4.4140 H   0  0  0  0  0  0  0  0  0  0  0  0
   -0.6173   13.1609   -3.8944 H   0  0  0  0  0  0  0  0  0  0  0  0
    0.3455   11.5774   -3.8764 H   0  0  0  0  0  0  0  0  0  0  0  0
   -1.5869   12.5903   -1.7726 H   0  0  0  0  0  0  0  0  0  0  0  0
   -1.7485   11.1513   -2.8544 H   0  0  0  0  0  0  0  0  0  0  0  0
    0.8068    9.0364   -1.3248 H   0  0  0  0  0  0  0  0  0  0  0  0
   -0.3567    9.2416   -2.6779 H   0  0  0  0  0  0  0  0  0  0  0  0
    1.1908   10.1537   -2.6779 H   0  0  0  0  0  0  0  0  0  0  0  0
  1 12  1  0  0  0  0
  1 33  1  0  0  0  0
  1 34  1  0  0  0  0
  1 35  1  0  0  0  0
  2  3  1  0  0  0  0
  2 48  1  0  0  0  0
  3  4  1  0  0  0  0
  3 49  1  0  0  0  0
  3 50  1  0  0  0  0
  4  5  1  0  0  0  0
  4 51  1  0  0  0  0
  4 52  1  0  0  0  0
  5  6  1  0  0  0  0
  5  7  1  0  0  0  0
  6 53  1  0  0  0  0
  6 54  1  0  0  0  0
  6 55  1  0  0  0  0
  7  8  1  0  0  0  0
  7 56  1  0  0  0  0
  8  9  1  0  0  0  0
  8 57  1  0  0  0  0
  8 58  1  0  0  0  0
  9 10  2  0  0  0  0
  9 59  1  0  0  0  0
 10 11  1  0  0  0  0
 11 13  1  0  0  0  0
 11 19  1  0  0  0  0
 11 60  1  0  0  0  0
  2 12  1  0  0  0  0
 12 22  1  0  0  0  0
 12 36  1  0  0  0  0
 13 14  1  0  0  0  0
 13 61  1  0  0  0  0
 13 62  1  0  0  0  0
 14 15  1  0  0  0  0
 14 63  1  0  0  0  0
 14 64  1  0  0  0  0
 15 16  1  0  0  0  0
 15 31  1  0  0  0  0
 15 65  1  0  0  0  0
 10 16  1  0  0  0  0
 16 17  1  0  0  0  0
 16 18  1  0  0  0  0
 17 67  1  0  0  0  0
 17 68  1  0  0  0  0
 17 69  1  0  0  0  0
 18 70  1  0  0  0  0
 18 71  1  0  0  0  0
 18 72  1  0  0  0  0
  7 19  1  0  0  0  0
 19 20  1  0  0  0  0
 19 21  1  0  0  0  0
 20 73  1  0  0  0  0
 20 74  1  0  0  0  0
 20 75  1  0  0  0  0
 21 23  1  0  0  0  0
 21 76  1  0  0  0  0
 21 77  1  0  0  0  0
 22 26  1  0  0  0  0
 22 37  1  0  0  0  0
 22 38  1  0  0  0  0
 23 24  1  0  0  0  0
 23 78  1  0  0  0  0
 23 79  1  0  0  0  0
  2 24  1  0  0  0  0
  5 24  1  0  0  0  0
 24 25  1  0  0  0  0
 25 80  1  0  0  0  0
 25 81  1  0  0  0  0
 25 82  1  0  0  0  0
 26 27  1  0  0  0  0
 26 39  1  0  0  0  0
 26 40  1  0  0  0  0
 27 32  1  0  0  0  0
 27 41  1  0  0  0  0
 27 28  1  0  0  0  0
 28 29  1  0  0  0  0
 28 30  1  0  0  0  0
 29 42  1  0  0  0  0
 29 43  1  0  0  0  0
 29 44  1  0  0  0  0
 30 45  1  0  0  0  0
 30 46  1  0  0  0  0
 30 47  1  0  0  0  0
 31 66  1  0  0  0  0
 28 32  1  0  0  0  0
M  END
$$$$
