EPH_relaxed_0001_pdb2pqr_Repair_268_r2_0001_out
  PyMOL3.1          3D                             0

 82 86  0  0  1  0  0  0  0  0999 V2000
   -1.6970    8.5850   -1.8580 C   0  0  0  0  0  0  0  0  0  0  0  0
   -1.2230   10.3300   -0.1290 C   0  0  1  0  0  0  0  0  0  0  0  0
   -0.1870   10.0260    0.9850 C   0  0  0  0  0  0  0  0  0  0  0  0
    1.0820   10.8540    0.6550 C   0  0  0  0  0  0  0  0  0  0  0  0
    0.6240   11.8500   -0.4360 C   0  0  1  0  0  0  0  0  0  0  0  0
   -0.0790   13.0040    0.3440 C   0  0  0  0  0  0  0  0  0  0  0  0
    1.7400   12.3930   -1.3880 C   0  0  2  0  0  0  0  0  0  0  0  0
    2.8460   13.2090   -0.6970 C   0  0  0  0  0  0  0  0  0  0  0  0
    2.5950   14.6790   -0.6130 C   0  0  0  0  0  0  0  0  0  0  0  0
    1.6690   15.3560   -1.3170 C   0  0  0  0  0  0  0  0  0  0  0  0
    0.8200   14.6520   -2.3830 C   0  0  1  0  0  0  0  0  0  0  0  0
   -2.0840    9.1210   -0.4770 C   0  0  2  0  0  0  0  0  0  0  0  0
    0.7870   15.5140   -3.6720 C   0  0  0  0  0  0  0  0  0  0  0  0
    0.3250   16.9430   -3.4080 C   0  0  0  0  0  0  0  0  0  0  0  0
    1.2280   17.6290   -2.3870 C   0  0  2  0  0  0  0  0  0  0  0  0
    1.3460   16.8470   -1.0500 C   0  0  0  0  0  0  0  0  0  0  0  0
    0.0030   16.9230   -0.2820 C   0  0  0  0  0  0  0  0  0  0  0  0
    2.3950   17.5710   -0.1630 C   0  0  0  0  0  0  0  0  0  0  0  0
    1.1910   13.1340   -2.6730 C   0  0  1  0  0  0  0  0  0  0  0  0
    2.3190   13.0580   -3.7470 C   0  0  0  0  0  0  0  0  0  0  0  0
   -0.0610   12.4080   -3.2930 C   0  0  0  0  0  0  0  0  0  0  0  0
   -3.5770    9.4970   -0.3970 C   0  0  0  0  0  0  0  0  0  0  0  0
   -1.0660   11.7890   -2.3030 C   0  0  0  0  0  0  0  0  0  0  0  0
   -0.3480   10.9280   -1.2590 C   0  0  2  0  0  0  0  0  0  0  0  0
    0.3510    9.7460   -2.0120 C   0  0  0  0  0  0  0  0  0  0  0  0
   -4.5080    8.2910   -0.2440 C   0  0  0  0  0  0  0  0  0  0  0  0
   -5.1890    7.9500   -1.5350 C   0  0  2  0  0  0  0  0  0  0  0  0
   -6.5750    7.3370   -1.6120 C   0  0  0  0  0  0  0  0  0  0  0  0
   -7.3620    7.0280   -0.3770 C   0  0  0  0  0  0  0  0  0  0  0  0
   -6.9600    6.5930   -2.8530 C   0  0  0  0  0  0  0  0  0  0  0  0
    2.5280   17.7990   -2.9620 O   0  0  0  0  0  0  0  0  0  0  0  0
   -6.3500    8.7400   -1.8250 O   0  0  0  0  0  0  0  0  0  0  0  0
   -1.0567    7.6982   -1.7409 H   0  0  0  0  0  0  0  0  0  0  0  0
   -2.6063    8.3101   -2.4126 H   0  0  0  0  0  0  0  0  0  0  0  0
   -1.1499    9.3616   -2.4126 H   0  0  0  0  0  0  0  0  0  0  0  0
   -1.9072    8.3161    0.2516 H   0  0  0  0  0  0  0  0  0  0  0  0
   -3.7223   10.1599    0.4687 H   0  0  0  0  0  0  0  0  0  0  0  0
   -3.8370    9.9853   -1.3478 H   0  0  0  0  0  0  0  0  0  0  0  0
   -3.9173    7.4243    0.0874 H   0  0  0  0  0  0  0  0  0  0  0  0
   -5.2816    8.5462    0.4952 H   0  0  0  0  0  0  0  0  0  0  0  0
   -4.2305    7.6671   -1.9946 H   0  0  0  0  0  0  0  0  0  0  0  0
   -6.7582    7.2651    0.5114 H   0  0  0  0  0  0  0  0  0  0  0  0
   -8.2813    7.6319   -0.3674 H   0  0  0  0  0  0  0  0  0  0  0  0
   -7.6248    5.9599   -0.3674 H   0  0  0  0  0  0  0  0  0  0  0  0
   -7.4493    5.6474   -2.5767 H   0  0  0  0  0  0  0  0  0  0  0  0
   -7.6544    7.2053   -3.4470 H   0  0  0  0  0  0  0  0  0  0  0  0
   -6.0591    6.3797   -3.4470 H   0  0  0  0  0  0  0  0  0  0  0  0
   -2.0119   11.0424    0.1540 H   0  0  0  0  0  0  0  0  0  0  0  0
   -0.5877   10.3219    1.9657 H   0  0  0  0  0  0  0  0  0  0  0  0
    0.0431    8.9512    1.0273 H   0  0  0  0  0  0  0  0  0  0  0  0
    1.4382   11.3910    1.5465 H   0  0  0  0  0  0  0  0  0  0  0  0
    1.9173   10.2219    0.3192 H   0  0  0  0  0  0  0  0  0  0  0  0
    0.0255   12.8324    1.4255 H   0  0  0  0  0  0  0  0  0  0  0  0
    0.3879   13.9639    0.0782 H   0  0  0  0  0  0  0  0  0  0  0  0
   -1.1461   13.0293    0.0782 H   0  0  0  0  0  0  0  0  0  0  0  0
    2.2245   11.4688   -1.7360 H   0  0  0  0  0  0  0  0  0  0  0  0
    2.9626   12.8248    0.3271 H   0  0  0  0  0  0  0  0  0  0  0  0
    3.7464   13.0885   -1.3173 H   0  0  0  0  0  0  0  0  0  0  0  0
    3.2200   15.2574    0.0833 H   0  0  0  0  0  0  0  0  0  0  0  0
   -0.1930   14.5731   -1.9615 H   0  0  0  0  0  0  0  0  0  0  0  0
    1.7990   15.5443   -4.1019 H   0  0  0  0  0  0  0  0  0  0  0  0
    0.0669   15.0527   -4.3639 H   0  0  0  0  0  0  0  0  0  0  0  0
    0.3518   17.5098   -4.3504 H   0  0  0  0  0  0  0  0  0  0  0  0
   -0.6986   16.9122   -3.0063 H   0  0  0  0  0  0  0  0  0  0  0  0
    0.7716   18.5996   -2.1426 H   0  0  0  0  0  0  0  0  0  0  0  0
    2.8220   16.9300   -3.2840 H   0  0  0  0  0  0  0  0  0  0  0  0
    0.1985   16.9119    0.8004 H   0  0  0  0  0  0  0  0  0  0  0  0
   -0.5209   17.8522   -0.5505 H   0  0  0  0  0  0  0  0  0  0  0  0
   -0.6224   16.0588   -0.5505 H   0  0  0  0  0  0  0  0  0  0  0  0
    2.1551   17.4055    0.8977 H   0  0  0  0  0  0  0  0  0  0  0  0
    3.3966   17.1710   -0.3792 H   0  0  0  0  0  0  0  0  0  0  0  0
    2.3763   18.6494   -0.3792 H   0  0  0  0  0  0  0  0  0  0  0  0
    3.2969   12.9921   -3.2476 H   0  0  0  0  0  0  0  0  0  0  0  0
    2.1675   12.1680   -4.3755 H   0  0  0  0  0  0  0  0  0  0  0  0
    2.2883   13.9603   -4.3755 H   0  0  0  0  0  0  0  0  0  0  0  0
   -0.6050   13.1448   -3.9023 H   0  0  0  0  0  0  0  0  0  0  0  0
    0.3495   11.5569   -3.8562 H   0  0  0  0  0  0  0  0  0  0  0  0
   -1.6103   12.5962   -1.7909 H   0  0  0  0  0  0  0  0  0  0  0  0
   -1.7634   11.1502   -2.8647 H   0  0  0  0  0  0  0  0  0  0  0  0
    0.7685    9.0401   -1.2789 H   0  0  0  0  0  0  0  0  0  0  0  0
   -0.3853    9.2267   -2.6430 H   0  0  0  0  0  0  0  0  0  0  0  0
    1.1608   10.1410   -2.6430 H   0  0  0  0  0  0  0  0  0  0  0  0
  1 12  1  0  0  0  0
  1 33  1  0  0  0  0
  1 34  1  0  0  0  0
  1 35  1  0  0  0  0
  2  3  1  0  0  0  0
  2 48  1  0  0  0  0
  3  4  1  0  0  0  0
  3 49  1  0  0  0  0
  3 50  1  0  0  0  0
  4  5  1  0  0  0  0
  4 51  1  0  0  0  0
  4 52  1  0  0  0  0
  5  6  1  0  0  0  0
  5  7  1  0  0  0  0
  6 53  1  0  0  0  0
  6 54  1  0  0  0  0
  6 55  1  0  0  0  0
  7  8  1  0  0  0  0
  7 56  1  0  0  0  0
  8  9  1  0  0  0  0
  8 57  1  0  0  0  0
  8 58  1  0  0  0  0
  9 10  2  0  0  0  0
  9 59  1  0  0  0  0
 10 11  1  0  0  0  0
 11 13  1  0  0  0  0
 11 19  1  0  0  0  0
 11 60  1  0  0  0  0
  2 12  1  0  0  0  0
 12 22  1  0  0  0  0
 12 36  1  0  0  0  0
 13 14  1  0  0  0  0
 13 61  1  0  0  0  0
 13 62  1  0  0  0  0
 14 15  1  0  0  0  0
 14 63  1  0  0  0  0
 14 64  1  0  0  0  0
 15 16  1  0  0  0  0
 15 31  1  0  0  0  0
 15 65  1  0  0  0  0
 10 16  1  0  0  0  0
 16 17  1  0  0  0  0
 16 18  1  0  0  0  0
 17 67  1  0  0  0  0
 17 68  1  0  0  0  0
 17 69  1  0  0  0  0
 18 70  1  0  0  0  0
 18 71  1  0  0  0  0
 18 72  1  0  0  0  0
  7 19  1  0  0  0  0
 19 20  1  0  0  0  0
 19 21  1  0  0  0  0
 20 73  1  0  0  0  0
 20 74  1  0  0  0  0
 20 75  1  0  0  0  0
 21 23  1  0  0  0  0
 21 76  1  0  0  0  0
 21 77  1  0  0  0  0
 22 26  1  0  0  0  0
 22 37  1  0  0  0  0
 22 38  1  0  0  0  0
 23 24  1  0  0  0  0
 23 78  1  0  0  0  0
 23 79  1  0  0  0  0
  2 24  1  0  0  0  0
  5 24  1  0  0  0  0
 24 25  1  0  0  0  0
 25 80  1  0  0  0  0
 25 81  1  0  0  0  0
 25 82  1  0  0  0  0
 26 27  1  0  0  0  0
 26 39  1  0  0  0  0
 26 40  1  0  0  0  0
 27 32  1  0  0  0  0
 27 41  1  0  0  0  0
 27 28  1  0  0  0  0
 28 29  1  0  0  0  0
 28 30  1  0  0  0  0
 29 42  1  0  0  0  0
 29 43  1  0  0  0  0
 29 44  1  0  0  0  0
 30 45  1  0  0  0  0
 30 46  1  0  0  0  0
 30 47  1  0  0  0  0
 31 66  1  0  0  0  0
 28 32  1  0  0  0  0
M  END
$$$$
