EPH_relaxed_0001_pdb2pqr_Repair_378_r2_0001_out
  PyMOL3.1          3D                             0

 82 86  0  0  1  0  0  0  0  0999 V2000
   -1.6870    8.5790   -1.8680 C   0  0  0  0  0  0  0  0  0  0  0  0
   -1.2120   10.3180   -0.1330 C   0  0  1  0  0  0  0  0  0  0  0  0
   -0.1790   10.0190    0.9860 C   0  0  0  0  0  0  0  0  0  0  0  0
    1.0870   10.8510    0.6590 C   0  0  0  0  0  0  0  0  0  0  0  0
    0.6300   11.8440   -0.4350 C   0  0  1  0  0  0  0  0  0  0  0  0
   -0.0810   12.9970    0.3410 C   0  0  0  0  0  0  0  0  0  0  0  0
    1.7470   12.3890   -1.3830 C   0  0  2  0  0  0  0  0  0  0  0  0
    2.8470   13.2110   -0.6900 C   0  0  0  0  0  0  0  0  0  0  0  0
    2.5910   14.6800   -0.6090 C   0  0  0  0  0  0  0  0  0  0  0  0
    1.6650   15.3520   -1.3170 C   0  0  0  0  0  0  0  0  0  0  0  0
    0.8220   14.6430   -2.3850 C   0  0  1  0  0  0  0  0  0  0  0  0
   -2.0670    9.1050   -0.4810 C   0  0  2  0  0  0  0  0  0  0  0  0
    0.7900   15.5040   -3.6760 C   0  0  0  0  0  0  0  0  0  0  0  0
    0.3210   16.9320   -3.4150 C   0  0  0  0  0  0  0  0  0  0  0  0
    1.2190   17.6230   -2.3920 C   0  0  2  0  0  0  0  0  0  0  0  0
    1.3350   16.8420   -1.0530 C   0  0  0  0  0  0  0  0  0  0  0  0
   -0.0110   16.9140   -0.2900 C   0  0  0  0  0  0  0  0  0  0  0  0
    2.3780   17.5720   -0.1640 C   0  0  0  0  0  0  0  0  0  0  0  0
    1.1990   13.1270   -2.6720 C   0  0  1  0  0  0  0  0  0  0  0  0
    2.3320   13.0530   -3.7420 C   0  0  0  0  0  0  0  0  0  0  0  0
   -0.0480   12.3950   -3.2950 C   0  0  0  0  0  0  0  0  0  0  0  0
   -3.5620    9.4700   -0.3880 C   0  0  0  0  0  0  0  0  0  0  0  0
   -1.0540   11.7730   -2.3080 C   0  0  0  0  0  0  0  0  0  0  0  0
   -0.3360   10.9170   -1.2600 C   0  0  2  0  0  0  0  0  0  0  0  0
    0.3700    9.7360   -2.0090 C   0  0  0  0  0  0  0  0  0  0  0  0
   -4.4870    8.2540   -0.2800 C   0  0  0  0  0  0  0  0  0  0  0  0
   -5.1660    7.9560   -1.5830 C   0  0  2  0  0  0  0  0  0  0  0  0
   -6.5300    7.3010   -1.6850 C   0  0  0  0  0  0  0  0  0  0  0  0
   -7.2980    6.9030   -0.4630 C   0  0  0  0  0  0  0  0  0  0  0  0
   -6.8980    6.6090   -2.9600 C   0  0  0  0  0  0  0  0  0  0  0  0
    2.5190   17.7960   -2.9620 O   0  0  0  0  0  0  0  0  0  0  0  0
   -6.3540    8.7200   -1.8270 O   0  0  0  0  0  0  0  0  0  0  0  0
   -1.0459    7.6916   -1.7606 H   0  0  0  0  0  0  0  0  0  0  0  0
   -2.5991    8.3078   -2.4199 H   0  0  0  0  0  0  0  0  0  0  0  0
   -1.1430    9.3597   -2.4199 H   0  0  0  0  0  0  0  0  0  0  0  0
   -1.8788    8.2977    0.2421 H   0  0  0  0  0  0  0  0  0  0  0  0
   -3.7110   10.0998    0.5014 H   0  0  0  0  0  0  0  0  0  0  0  0
   -3.8242    9.9916   -1.3203 H   0  0  0  0  0  0  0  0  0  0  0  0
   -3.8918    7.3790    0.0201 H   0  0  0  0  0  0  0  0  0  0  0  0
   -5.2625    8.4785    0.4672 H   0  0  0  0  0  0  0  0  0  0  0  0
   -4.2015    7.7292   -2.0607 H   0  0  0  0  0  0  0  0  0  0  0  0
   -6.7345    7.1950    0.4355 H   0  0  0  0  0  0  0  0  0  0  0  0
   -8.2751    7.4082   -0.4633 H   0  0  0  0  0  0  0  0  0  0  0  0
   -7.4486    5.8134   -0.4633 H   0  0  0  0  0  0  0  0  0  0  0  0
   -7.4030    5.6594   -2.7293 H   0  0  0  0  0  0  0  0  0  0  0  0
   -7.5737    7.2512   -3.5439 H   0  0  0  0  0  0  0  0  0  0  0  0
   -5.9878    6.4078   -3.5439 H   0  0  0  0  0  0  0  0  0  0  0  0
   -2.0043   11.0286    0.1450 H   0  0  0  0  0  0  0  0  0  0  0  0
   -0.5844   10.3149    1.9648 H   0  0  0  0  0  0  0  0  0  0  0  0
    0.0547    8.9451    1.0314 H   0  0  0  0  0  0  0  0  0  0  0  0
    1.4381   11.3906    1.5510 H   0  0  0  0  0  0  0  0  0  0  0  0
    1.9254   10.2213    0.3266 H   0  0  0  0  0  0  0  0  0  0  0  0
    0.0226   12.8290    1.4232 H   0  0  0  0  0  0  0  0  0  0  0  0
    0.3812   13.9586    0.0733 H   0  0  0  0  0  0  0  0  0  0  0  0
   -1.1478   13.0158    0.0733 H   0  0  0  0  0  0  0  0  0  0  0  0
    2.2364   11.4658   -1.7269 H   0  0  0  0  0  0  0  0  0  0  0  0
    2.9617   12.8291    0.3352 H   0  0  0  0  0  0  0  0  0  0  0  0
    3.7494   13.0933   -1.3079 H   0  0  0  0  0  0  0  0  0  0  0  0
    3.2118   15.2617    0.0883 H   0  0  0  0  0  0  0  0  0  0  0  0
   -0.1919   14.5605   -1.9664 H   0  0  0  0  0  0  0  0  0  0  0  0
    1.8034   15.5380   -4.1024 H   0  0  0  0  0  0  0  0  0  0  0  0
    0.0743   15.0390   -4.3699 H   0  0  0  0  0  0  0  0  0  0  0  0
    0.3480   17.4978   -4.3580 H   0  0  0  0  0  0  0  0  0  0  0  0
   -0.7036   16.8976   -3.0162 H   0  0  0  0  0  0  0  0  0  0  0  0
    0.7592   18.5928   -2.1509 H   0  0  0  0  0  0  0  0  0  0  0  0
    2.8700   18.6450   -2.6430 H   0  0  0  0  0  0  0  0  0  0  0  0
    0.1805   16.9038    0.7932 H   0  0  0  0  0  0  0  0  0  0  0  0
   -0.5367   17.8416   -0.5606 H   0  0  0  0  0  0  0  0  0  0  0  0
   -0.6327   16.0478   -0.5606 H   0  0  0  0  0  0  0  0  0  0  0  0
    2.1378   17.4039    0.8962 H   0  0  0  0  0  0  0  0  0  0  0  0
    3.3825   17.1788   -0.3792 H   0  0  0  0  0  0  0  0  0  0  0  0
    2.3525   18.6504   -0.3792 H   0  0  0  0  0  0  0  0  0  0  0  0
    3.3080   12.9893   -3.2387 H   0  0  0  0  0  0  0  0  0  0  0  0
    2.1849   12.1626   -4.3708 H   0  0  0  0  0  0  0  0  0  0  0  0
    2.3019   13.9550   -4.3708 H   0  0  0  0  0  0  0  0  0  0  0  0
   -0.5929   13.1288   -3.9071 H   0  0  0  0  0  0  0  0  0  0  0  0
    0.3681   11.5448   -3.8554 H   0  0  0  0  0  0  0  0  0  0  0  0
   -1.6040   12.5785   -1.7993 H   0  0  0  0  0  0  0  0  0  0  0  0
   -1.7464   11.1302   -2.8714 H   0  0  0  0  0  0  0  0  0  0  0  0
    0.7897    9.0340   -1.2734 H   0  0  0  0  0  0  0  0  0  0  0  0
   -0.3629    9.2115   -2.6397 H   0  0  0  0  0  0  0  0  0  0  0  0
    1.1789   10.1332   -2.6397 H   0  0  0  0  0  0  0  0  0  0  0  0
  1 12  1  0  0  0  0
  1 33  1  0  0  0  0
  1 34  1  0  0  0  0
  1 35  1  0  0  0  0
  2  3  1  0  0  0  0
  2 48  1  0  0  0  0
  3  4  1  0  0  0  0
  3 49  1  0  0  0  0
  3 50  1  0  0  0  0
  4  5  1  0  0  0  0
  4 51  1  0  0  0  0
  4 52  1  0  0  0  0
  5  6  1  0  0  0  0
  5  7  1  0  0  0  0
  6 53  1  0  0  0  0
  6 54  1  0  0  0  0
  6 55  1  0  0  0  0
  7  8  1  0  0  0  0
  7 56  1  0  0  0  0
  8  9  1  0  0  0  0
  8 57  1  0  0  0  0
  8 58  1  0  0  0  0
  9 10  2  0  0  0  0
  9 59  1  0  0  0  0
 10 11  1  0  0  0  0
 11 13  1  0  0  0  0
 11 19  1  0  0  0  0
 11 60  1  0  0  0  0
  2 12  1  0  0  0  0
 12 22  1  0  0  0  0
 12 36  1  0  0  0  0
 13 14  1  0  0  0  0
 13 61  1  0  0  0  0
 13 62  1  0  0  0  0
 14 15  1  0  0  0  0
 14 63  1  0  0  0  0
 14 64  1  0  0  0  0
 15 16  1  0  0  0  0
 15 31  1  0  0  0  0
 15 65  1  0  0  0  0
 10 16  1  0  0  0  0
 16 17  1  0  0  0  0
 16 18  1  0  0  0  0
 17 67  1  0  0  0  0
 17 68  1  0  0  0  0
 17 69  1  0  0  0  0
 18 70  1  0  0  0  0
 18 71  1  0  0  0  0
 18 72  1  0  0  0  0
  7 19  1  0  0  0  0
 19 20  1  0  0  0  0
 19 21  1  0  0  0  0
 20 73  1  0  0  0  0
 20 74  1  0  0  0  0
 20 75  1  0  0  0  0
 21 23  1  0  0  0  0
 21 76  1  0  0  0  0
 21 77  1  0  0  0  0
 22 26  1  0  0  0  0
 22 37  1  0  0  0  0
 22 38  1  0  0  0  0
 23 24  1  0  0  0  0
 23 78  1  0  0  0  0
 23 79  1  0  0  0  0
  2 24  1  0  0  0  0
  5 24  1  0  0  0  0
 24 25  1  0  0  0  0
 25 80  1  0  0  0  0
 25 81  1  0  0  0  0
 25 82  1  0  0  0  0
 26 27  1  0  0  0  0
 26 39  1  0  0  0  0
 26 40  1  0  0  0  0
 27 32  1  0  0  0  0
 27 41  1  0  0  0  0
 27 28  1  0  0  0  0
 28 29  1  0  0  0  0
 28 30  1  0  0  0  0
 29 42  1  0  0  0  0
 29 43  1  0  0  0  0
 29 44  1  0  0  0  0
 30 45  1  0  0  0  0
 30 46  1  0  0  0  0
 30 47  1  0  0  0  0
 31 66  1  0  0  0  0
 28 32  1  0  0  0  0
M  END
$$$$
