EPH_relaxed_0001_pdb2pqr_Repair_406_r2_0001_out
  PyMOL3.1          3D                             0

 82 86  0  0  1  0  0  0  0  0999 V2000
   -1.6000    8.5560   -1.8220 C   0  0  0  0  0  0  0  0  0  0  0  0
   -1.0940   10.3300   -0.1320 C   0  0  1  0  0  0  0  0  0  0  0  0
    0.0100    9.9990    0.9060 C   0  0  0  0  0  0  0  0  0  0  0  0
    1.2570   10.8350    0.5170 C   0  0  0  0  0  0  0  0  0  0  0  0
    0.7320   11.8570   -0.5190 C   0  0  1  0  0  0  0  0  0  0  0  0
    0.0810   12.9920    0.3330 C   0  0  0  0  0  0  0  0  0  0  0  0
    1.7860   12.4230   -1.5260 C   0  0  2  0  0  0  0  0  0  0  0  0
    2.9350   13.2230   -0.8870 C   0  0  0  0  0  0  0  0  0  0  0  0
    2.6920   14.6900   -0.7520 C   0  0  0  0  0  0  0  0  0  0  0  0
    1.7240   15.3840   -1.3790 C   0  0  0  0  0  0  0  0  0  0  0  0
    0.8080   14.7050   -2.4050 C   0  0  1  0  0  0  0  0  0  0  0  0
   -1.9770    9.1300   -0.4540 C   0  0  2  0  0  0  0  0  0  0  0  0
    0.6940   15.5990   -3.6680 C   0  0  0  0  0  0  0  0  0  0  0  0
    0.2510   17.0220   -3.3410 C   0  0  0  0  0  0  0  0  0  0  0  0
    1.2190   17.6830   -2.3620 C   0  0  2  0  0  0  0  0  0  0  0  0
    1.4210   16.8670   -1.0550 C   0  0  0  0  0  0  0  0  0  0  0  0
    0.1300   16.9240   -0.2010 C   0  0  0  0  0  0  0  0  0  0  0  0
    2.5250   17.5700   -0.2190 C   0  0  0  0  0  0  0  0  0  0  0  0
    1.1570   13.1950   -2.7560 C   0  0  1  0  0  0  0  0  0  0  0  0
    2.2150   13.1450   -3.9000 C   0  0  0  0  0  0  0  0  0  0  0  0
   -0.1330   12.4850   -3.3120 C   0  0  0  0  0  0  0  0  0  0  0  0
   -3.4630    9.5350   -0.3830 C   0  0  0  0  0  0  0  0  0  0  0  0
   -1.0740   11.8410   -2.2760 C   0  0  0  0  0  0  0  0  0  0  0  0
   -0.2920   10.9560   -1.3010 C   0  0  2  0  0  0  0  0  0  0  0  0
    0.3560    9.7920   -2.1260 C   0  0  0  0  0  0  0  0  0  0  0  0
   -4.4190    8.3460   -0.2550 C   0  0  0  0  0  0  0  0  0  0  0  0
   -5.0890    8.0310   -1.5580 C   0  0  2  0  0  0  0  0  0  0  0  0
   -6.3970    7.2690   -1.6630 C   0  0  0  0  0  0  0  0  0  0  0  0
   -7.1130    6.7750   -0.4450 C   0  0  0  0  0  0  0  0  0  0  0  0
   -6.7250    6.5850   -2.9540 C   0  0  0  0  0  0  0  0  0  0  0  0
    2.4800   17.8660   -3.0140 O   0  0  0  0  0  0  0  0  0  0  0  0
   -6.3390    8.7010   -1.7660 O   0  0  0  0  0  0  0  0  0  0  0  0
   -1.0009    7.6438   -1.6844 H   0  0  0  0  0  0  0  0  0  0  0  0
   -2.5148    8.3128   -2.3823 H   0  0  0  0  0  0  0  0  0  0  0  0
   -1.0134    9.2989   -2.3823 H   0  0  0  0  0  0  0  0  0  0  0  0
   -1.8149    8.3384    0.2924 H   0  0  0  0  0  0  0  0  0  0  0  0
   -3.6034   10.1892    0.4901 H   0  0  0  0  0  0  0  0  0  0  0  0
   -3.7040   10.0411   -1.3294 H   0  0  0  0  0  0  0  0  0  0  0  0
   -3.8496    7.4647    0.0753 H   0  0  0  0  0  0  0  0  0  0  0  0
   -5.1975    8.6090    0.4762 H   0  0  0  0  0  0  0  0  0  0  0  0
   -4.1159    7.8983   -2.0534 H   0  0  0  0  0  0  0  0  0  0  0  0
   -6.5937    7.1333    0.4561 H   0  0  0  0  0  0  0  0  0  0  0  0
   -8.1458    7.1536   -0.4480 H   0  0  0  0  0  0  0  0  0  0  0  0
   -7.1257    5.6751   -0.4480 H   0  0  0  0  0  0  0  0  0  0  0  0
   -7.1919    5.6113   -2.7447 H   0  0  0  0  0  0  0  0  0  0  0  0
   -7.4219    7.2090   -3.5328 H   0  0  0  0  0  0  0  0  0  0  0  0
   -5.8022    6.4323   -3.5328 H   0  0  0  0  0  0  0  0  0  0  0  0
   -1.8621   11.0352    0.2182 H   0  0  0  0  0  0  0  0  0  0  0  0
   -0.3274   10.2705    1.9171 H   0  0  0  0  0  0  0  0  0  0  0  0
    0.2408    8.9235    0.9069 H   0  0  0  0  0  0  0  0  0  0  0  0
    1.6692   11.3505    1.3970 H   0  0  0  0  0  0  0  0  0  0  0  0
    2.0690   10.2116    0.1144 H   0  0  0  0  0  0  0  0  0  0  0  0
    0.2097   12.7676    1.4022 H   0  0  0  0  0  0  0  0  0  0  0  0
    0.5664   13.9508    0.0985 H   0  0  0  0  0  0  0  0  0  0  0  0
   -0.9917   13.0571    0.0985 H   0  0  0  0  0  0  0  0  0  0  0  0
    2.2466   11.5076   -1.9257 H   0  0  0  0  0  0  0  0  0  0  0  0
    3.1159   12.8144    0.1182 H   0  0  0  0  0  0  0  0  0  0  0  0
    3.7939   13.1178   -1.5661 H   0  0  0  0  0  0  0  0  0  0  0  0
    3.3610   15.2514   -0.0832 H   0  0  0  0  0  0  0  0  0  0  0  0
   -0.1755   14.6142   -1.9207 H   0  0  0  0  0  0  0  0  0  0  0  0
    1.6768   15.6403   -4.1604 H   0  0  0  0  0  0  0  0  0  0  0  0
   -0.0695   15.1544   -4.3233 H   0  0  0  0  0  0  0  0  0  0  0  0
    0.2191   17.6115   -4.2692 H   0  0  0  0  0  0  0  0  0  0  0  0
   -0.7454   16.9818   -2.8767 H   0  0  0  0  0  0  0  0  0  0  0  0
    0.7808   18.6473   -2.0652 H   0  0  0  0  0  0  0  0  0  0  0  0
    2.8120   16.9880   -3.2660 H   0  0  0  0  0  0  0  0  0  0  0  0
    0.3956   16.9123    0.8664 H   0  0  0  0  0  0  0  0  0  0  0  0
   -0.4216   17.8474   -0.4315 H   0  0  0  0  0  0  0  0  0  0  0  0
   -0.5008   16.0528   -0.4315 H   0  0  0  0  0  0  0  0  0  0  0  0
    2.3147   17.4361    0.8524 H   0  0  0  0  0  0  0  0  0  0  0  0
    3.5035   17.1283   -0.4586 H   0  0  0  0  0  0  0  0  0  0  0  0
    2.5387   18.6435   -0.4586 H   0  0  0  0  0  0  0  0  0  0  0  0
    3.2240   13.0973   -3.4645 H   0  0  0  0  0  0  0  0  0  0  0  0
    2.0414   12.2541   -4.5213 H   0  0  0  0  0  0  0  0  0  0  0  0
    2.1262   14.0483   -4.5213 H   0  0  0  0  0  0  0  0  0  0  0  0
   -0.7136   13.2369   -3.8665 H   0  0  0  0  0  0  0  0  0  0  0  0
    0.2395   11.6482   -3.9211 H   0  0  0  0  0  0  0  0  0  0  0  0
   -1.5846   12.6349   -1.7111 H   0  0  0  0  0  0  0  0  0  0  0  0
   -1.8059   11.2154   -2.8079 H   0  0  0  0  0  0  0  0  0  0  0  0
    0.7732    9.0426   -1.4373 H   0  0  0  0  0  0  0  0  0  0  0  0
   -0.4099    9.3213   -2.7599 H   0  0  0  0  0  0  0  0  0  0  0  0
    1.1596   10.1950   -2.7599 H   0  0  0  0  0  0  0  0  0  0  0  0
  1 12  1  0  0  0  0
  1 33  1  0  0  0  0
  1 34  1  0  0  0  0
  1 35  1  0  0  0  0
  2  3  1  0  0  0  0
  2 48  1  0  0  0  0
  3  4  1  0  0  0  0
  3 49  1  0  0  0  0
  3 50  1  0  0  0  0
  4  5  1  0  0  0  0
  4 51  1  0  0  0  0
  4 52  1  0  0  0  0
  5  6  1  0  0  0  0
  5  7  1  0  0  0  0
  6 53  1  0  0  0  0
  6 54  1  0  0  0  0
  6 55  1  0  0  0  0
  7  8  1  0  0  0  0
  7 56  1  0  0  0  0
  8  9  1  0  0  0  0
  8 57  1  0  0  0  0
  8 58  1  0  0  0  0
  9 10  2  0  0  0  0
  9 59  1  0  0  0  0
 10 11  1  0  0  0  0
 11 13  1  0  0  0  0
 11 19  1  0  0  0  0
 11 60  1  0  0  0  0
  2 12  1  0  0  0  0
 12 22  1  0  0  0  0
 12 36  1  0  0  0  0
 13 14  1  0  0  0  0
 13 61  1  0  0  0  0
 13 62  1  0  0  0  0
 14 15  1  0  0  0  0
 14 63  1  0  0  0  0
 14 64  1  0  0  0  0
 15 16  1  0  0  0  0
 15 31  1  0  0  0  0
 15 65  1  0  0  0  0
 10 16  1  0  0  0  0
 16 17  1  0  0  0  0
 16 18  1  0  0  0  0
 17 67  1  0  0  0  0
 17 68  1  0  0  0  0
 17 69  1  0  0  0  0
 18 70  1  0  0  0  0
 18 71  1  0  0  0  0
 18 72  1  0  0  0  0
  7 19  1  0  0  0  0
 19 20  1  0  0  0  0
 19 21  1  0  0  0  0
 20 73  1  0  0  0  0
 20 74  1  0  0  0  0
 20 75  1  0  0  0  0
 21 23  1  0  0  0  0
 21 76  1  0  0  0  0
 21 77  1  0  0  0  0
 22 26  1  0  0  0  0
 22 37  1  0  0  0  0
 22 38  1  0  0  0  0
 23 24  1  0  0  0  0
 23 78  1  0  0  0  0
 23 79  1  0  0  0  0
  2 24  1  0  0  0  0
  5 24  1  0  0  0  0
 24 25  1  0  0  0  0
 25 80  1  0  0  0  0
 25 81  1  0  0  0  0
 25 82  1  0  0  0  0
 26 27  1  0  0  0  0
 26 39  1  0  0  0  0
 26 40  1  0  0  0  0
 27 32  1  0  0  0  0
 27 41  1  0  0  0  0
 27 28  1  0  0  0  0
 28 29  1  0  0  0  0
 28 30  1  0  0  0  0
 29 42  1  0  0  0  0
 29 43  1  0  0  0  0
 29 44  1  0  0  0  0
 30 45  1  0  0  0  0
 30 46  1  0  0  0  0
 30 47  1  0  0  0  0
 31 66  1  0  0  0  0
 28 32  1  0  0  0  0
M  END
$$$$
