EPH_relaxed_0001_pdb2pqr_Repair_411_r2_0001_out
  PyMOL3.1          3D                             0

 82 86  0  0  1  0  0  0  0  0999 V2000
   -1.6810    8.5660   -1.8710 C   0  0  0  0  0  0  0  0  0  0  0  0
   -1.1960   10.3010   -0.1350 C   0  0  1  0  0  0  0  0  0  0  0  0
   -0.1560    9.9920    0.9740 C   0  0  0  0  0  0  0  0  0  0  0  0
    1.1110   10.8220    0.6420 C   0  0  0  0  0  0  0  0  0  0  0  0
    0.6490   11.8220   -0.4430 C   0  0  1  0  0  0  0  0  0  0  0  0
   -0.0510   12.9740    0.3450 C   0  0  0  0  0  0  0  0  0  0  0  0
    1.7610   12.3690   -1.3970 C   0  0  2  0  0  0  0  0  0  0  0  0
    2.8700   13.1830   -0.7080 C   0  0  0  0  0  0  0  0  0  0  0  0
    2.6190   14.6520   -0.6170 C   0  0  0  0  0  0  0  0  0  0  0  0
    1.6900   15.3320   -1.3140 C   0  0  0  0  0  0  0  0  0  0  0  0
    0.8360   14.6320   -2.3800 C   0  0  1  0  0  0  0  0  0  0  0  0
   -2.0580    9.0940   -0.4840 C   0  0  2  0  0  0  0  0  0  0  0  0
    0.7980   15.5000   -3.6650 C   0  0  0  0  0  0  0  0  0  0  0  0
    0.3360   16.9280   -3.3930 C   0  0  0  0  0  0  0  0  0  0  0  0
    1.2440   17.6100   -2.3730 C   0  0  2  0  0  0  0  0  0  0  0  0
    1.3680   16.8220   -1.0390 C   0  0  0  0  0  0  0  0  0  0  0  0
    0.0280   16.8940   -0.2660 C   0  0  0  0  0  0  0  0  0  0  0  0
    2.4200   17.5430   -0.1540 C   0  0  0  0  0  0  0  0  0  0  0  0
    1.2060   13.1160   -2.6780 C   0  0  1  0  0  0  0  0  0  0  0  0
    2.3300   13.0440   -3.7560 C   0  0  0  0  0  0  0  0  0  0  0  0
   -0.0480   12.3920   -3.2960 C   0  0  0  0  0  0  0  0  0  0  0  0
   -3.5510    9.4670   -0.3910 C   0  0  0  0  0  0  0  0  0  0  0  0
   -1.0490   11.7690   -2.3040 C   0  0  0  0  0  0  0  0  0  0  0  0
   -0.3260   10.9040   -1.2660 C   0  0  2  0  0  0  0  0  0  0  0  0
    0.3700    9.7250   -2.0280 C   0  0  0  0  0  0  0  0  0  0  0  0
   -4.4820    8.2580   -0.2640 C   0  0  0  0  0  0  0  0  0  0  0  0
   -5.1720    7.9500   -1.5580 C   0  0  2  0  0  0  0  0  0  0  0  0
   -6.5510    7.3230   -1.6420 C   0  0  0  0  0  0  0  0  0  0  0  0
   -7.3220    6.9650   -0.4110 C   0  0  0  0  0  0  0  0  0  0  0  0
   -6.9390    6.6150   -2.9030 C   0  0  0  0  0  0  0  0  0  0  0  0
    2.5410   17.7820   -2.9520 O   0  0  0  0  0  0  0  0  0  0  0  0
   -6.3440    8.7350   -1.8130 O   0  0  0  0  0  0  0  0  0  0  0  0
   -1.0448    7.6750   -1.7637 H   0  0  0  0  0  0  0  0  0  0  0  0
   -2.5946    8.2999   -2.4228 H   0  0  0  0  0  0  0  0  0  0  0  0
   -1.1327    9.3437   -2.4228 H   0  0  0  0  0  0  0  0  0  0  0  0
   -1.8745    8.2856    0.2390 H   0  0  0  0  0  0  0  0  0  0  0  0
   -3.6940   10.1092    0.4905 H   0  0  0  0  0  0  0  0  0  0  0  0
   -3.8135    9.9769   -1.3297 H   0  0  0  0  0  0  0  0  0  0  0  0
   -3.8897    7.3827    0.0410 H   0  0  0  0  0  0  0  0  0  0  0  0
   -5.2509    8.4952    0.4860 H   0  0  0  0  0  0  0  0  0  0  0  0
   -4.2145    7.6930   -2.0347 H   0  0  0  0  0  0  0  0  0  0  0  0
   -6.7370    7.2367    0.4800 H   0  0  0  0  0  0  0  0  0  0  0  0
   -8.2762    7.5122   -0.4039 H   0  0  0  0  0  0  0  0  0  0  0  0
   -7.5197    5.8829   -0.4039 H   0  0  0  0  0  0  0  0  0  0  0  0
   -7.4538    5.6757   -2.6526 H   0  0  0  0  0  0  0  0  0  0  0  0
   -7.6118    7.2562   -3.4914 H   0  0  0  0  0  0  0  0  0  0  0  0
   -6.0365    6.3930   -3.4914 H   0  0  0  0  0  0  0  0  0  0  0  0
   -1.9835   11.0126    0.1538 H   0  0  0  0  0  0  0  0  0  0  0  0
   -0.5530   10.2835    1.9576 H   0  0  0  0  0  0  0  0  0  0  0  0
    0.0743    8.9170    1.0114 H   0  0  0  0  0  0  0  0  0  0  0  0
    1.4704   11.3557    1.5342 H   0  0  0  0  0  0  0  0  0  0  0  0
    1.9450   10.1914    0.3002 H   0  0  0  0  0  0  0  0  0  0  0  0
    0.0564   12.7972    1.4254 H   0  0  0  0  0  0  0  0  0  0  0  0
    0.4163   13.9346    0.0824 H   0  0  0  0  0  0  0  0  0  0  0  0
   -1.1188   13.0018    0.0824 H   0  0  0  0  0  0  0  0  0  0  0  0
    2.2441   11.4459   -1.7497 H   0  0  0  0  0  0  0  0  0  0  0  0
    2.9917   12.7949    0.3140 H   0  0  0  0  0  0  0  0  0  0  0  0
    3.7674   13.0654   -1.3332 H   0  0  0  0  0  0  0  0  0  0  0  0
    3.2469   15.2275    0.0791 H   0  0  0  0  0  0  0  0  0  0  0  0
   -0.1753   14.5508   -1.9550 H   0  0  0  0  0  0  0  0  0  0  0  0
    1.8085   15.5329   -4.0983 H   0  0  0  0  0  0  0  0  0  0  0  0
    0.0757   15.0414   -4.3564 H   0  0  0  0  0  0  0  0  0  0  0  0
    0.3581   17.4988   -4.3331 H   0  0  0  0  0  0  0  0  0  0  0  0
   -0.6858   16.8952   -2.9870 H   0  0  0  0  0  0  0  0  0  0  0  0
    0.7886   18.5797   -2.1233 H   0  0  0  0  0  0  0  0  0  0  0  0
    3.1540   17.1900   -2.4840 H   0  0  0  0  0  0  0  0  0  0  0  0
    0.2277   16.8833    0.8157 H   0  0  0  0  0  0  0  0  0  0  0  0
   -0.4995   17.8218   -0.5323 H   0  0  0  0  0  0  0  0  0  0  0  0
   -0.5959   16.0281   -0.5323 H   0  0  0  0  0  0  0  0  0  0  0  0
    2.1808   17.3790    0.9071 H   0  0  0  0  0  0  0  0  0  0  0  0
    3.4201   17.1396   -0.3710 H   0  0  0  0  0  0  0  0  0  0  0  0
    2.4046   18.6213   -0.3710 H   0  0  0  0  0  0  0  0  0  0  0  0
    3.3100   12.9812   -3.2603 H   0  0  0  0  0  0  0  0  0  0  0  0
    2.1791   12.1537   -4.3841 H   0  0  0  0  0  0  0  0  0  0  0  0
    2.2940   13.9463   -4.3841 H   0  0  0  0  0  0  0  0  0  0  0  0
   -0.5945   13.1308   -3.9005 H   0  0  0  0  0  0  0  0  0  0  0  0
    0.3605   11.5433   -3.8642 H   0  0  0  0  0  0  0  0  0  0  0  0
   -1.5913   12.5741   -1.7866 H   0  0  0  0  0  0  0  0  0  0  0  0
   -1.7488   11.1323   -2.8651 H   0  0  0  0  0  0  0  0  0  0  0  0
    0.7893    9.0148   -1.3001 H   0  0  0  0  0  0  0  0  0  0  0  0
   -0.3688    9.2097   -2.6594 H   0  0  0  0  0  0  0  0  0  0  0  0
    1.1781   10.1228   -2.6594 H   0  0  0  0  0  0  0  0  0  0  0  0
  1 12  1  0  0  0  0
  1 33  1  0  0  0  0
  1 34  1  0  0  0  0
  1 35  1  0  0  0  0
  2  3  1  0  0  0  0
  2 48  1  0  0  0  0
  3  4  1  0  0  0  0
  3 49  1  0  0  0  0
  3 50  1  0  0  0  0
  4  5  1  0  0  0  0
  4 51  1  0  0  0  0
  4 52  1  0  0  0  0
  5  6  1  0  0  0  0
  5  7  1  0  0  0  0
  6 53  1  0  0  0  0
  6 54  1  0  0  0  0
  6 55  1  0  0  0  0
  7  8  1  0  0  0  0
  7 56  1  0  0  0  0
  8  9  1  0  0  0  0
  8 57  1  0  0  0  0
  8 58  1  0  0  0  0
  9 10  2  0  0  0  0
  9 59  1  0  0  0  0
 10 11  1  0  0  0  0
 11 13  1  0  0  0  0
 11 19  1  0  0  0  0
 11 60  1  0  0  0  0
  2 12  1  0  0  0  0
 12 22  1  0  0  0  0
 12 36  1  0  0  0  0
 13 14  1  0  0  0  0
 13 61  1  0  0  0  0
 13 62  1  0  0  0  0
 14 15  1  0  0  0  0
 14 63  1  0  0  0  0
 14 64  1  0  0  0  0
 15 16  1  0  0  0  0
 15 31  1  0  0  0  0
 15 65  1  0  0  0  0
 10 16  1  0  0  0  0
 16 17  1  0  0  0  0
 16 18  1  0  0  0  0
 17 67  1  0  0  0  0
 17 68  1  0  0  0  0
 17 69  1  0  0  0  0
 18 70  1  0  0  0  0
 18 71  1  0  0  0  0
 18 72  1  0  0  0  0
  7 19  1  0  0  0  0
 19 20  1  0  0  0  0
 19 21  1  0  0  0  0
 20 73  1  0  0  0  0
 20 74  1  0  0  0  0
 20 75  1  0  0  0  0
 21 23  1  0  0  0  0
 21 76  1  0  0  0  0
 21 77  1  0  0  0  0
 22 26  1  0  0  0  0
 22 37  1  0  0  0  0
 22 38  1  0  0  0  0
 23 24  1  0  0  0  0
 23 78  1  0  0  0  0
 23 79  1  0  0  0  0
  2 24  1  0  0  0  0
  5 24  1  0  0  0  0
 24 25  1  0  0  0  0
 25 80  1  0  0  0  0
 25 81  1  0  0  0  0
 25 82  1  0  0  0  0
 26 27  1  0  0  0  0
 26 39  1  0  0  0  0
 26 40  1  0  0  0  0
 27 32  1  0  0  0  0
 27 41  1  0  0  0  0
 27 28  1  0  0  0  0
 28 29  1  0  0  0  0
 28 30  1  0  0  0  0
 29 42  1  0  0  0  0
 29 43  1  0  0  0  0
 29 44  1  0  0  0  0
 30 45  1  0  0  0  0
 30 46  1  0  0  0  0
 30 47  1  0  0  0  0
 31 66  1  0  0  0  0
 28 32  1  0  0  0  0
M  END
$$$$
