EPH_relaxed_0001_pdb2pqr_Repair_59_r2_0001_out
  PyMOL3.1          3D                             0

 82 86  0  0  1  0  0  0  0  0999 V2000
   -1.6420    8.5700   -1.8540 C   0  0  0  0  0  0  0  0  0  0  0  0
   -1.1740   10.3150   -0.1230 C   0  0  1  0  0  0  0  0  0  0  0  0
   -0.1360   10.0170    0.9920 C   0  0  0  0  0  0  0  0  0  0  0  0
    1.1270   10.8530    0.6620 C   0  0  0  0  0  0  0  0  0  0  0  0
    0.6640   11.8450   -0.4300 C   0  0  1  0  0  0  0  0  0  0  0  0
   -0.0470   12.9960    0.3490 C   0  0  0  0  0  0  0  0  0  0  0  0
    1.7770   12.3940   -1.3820 C   0  0  2  0  0  0  0  0  0  0  0  0
    2.8780   13.2180   -0.6910 C   0  0  0  0  0  0  0  0  0  0  0  0
    2.6180   14.6860   -0.6080 C   0  0  0  0  0  0  0  0  0  0  0  0
    1.6880   15.3570   -1.3130 C   0  0  0  0  0  0  0  0  0  0  0  0
    0.8430   14.6470   -2.3790 C   0  0  1  0  0  0  0  0  0  0  0  0
   -2.0270    9.1000   -0.4700 C   0  0  2  0  0  0  0  0  0  0  0  0
    0.8060   15.5090   -3.6680 C   0  0  0  0  0  0  0  0  0  0  0  0
    0.3340   16.9350   -3.4050 C   0  0  0  0  0  0  0  0  0  0  0  0
    1.2340   17.6270   -2.3840 C   0  0  2  0  0  0  0  0  0  0  0  0
    1.3560   16.8460   -1.0460 C   0  0  0  0  0  0  0  0  0  0  0  0
    0.0120   16.9140   -0.2790 C   0  0  0  0  0  0  0  0  0  0  0  0
    2.4000   17.5780   -0.1600 C   0  0  0  0  0  0  0  0  0  0  0  0
    1.2240   13.1310   -2.6680 C   0  0  1  0  0  0  0  0  0  0  0  0
    2.3530   13.0620   -3.7410 C   0  0  0  0  0  0  0  0  0  0  0  0
   -0.0240   12.3980   -3.2880 C   0  0  0  0  0  0  0  0  0  0  0  0
   -3.5230    9.4650   -0.3830 C   0  0  0  0  0  0  0  0  0  0  0  0
   -1.0250   11.7730   -2.2980 C   0  0  0  0  0  0  0  0  0  0  0  0
   -0.3020   10.9180   -1.2530 C   0  0  2  0  0  0  0  0  0  0  0  0
    0.4040    9.7390   -2.0060 C   0  0  0  0  0  0  0  0  0  0  0  0
   -4.4470    8.2490   -0.2720 C   0  0  0  0  0  0  0  0  0  0  0  0
   -5.1260    7.9490   -1.5740 C   0  0  2  0  0  0  0  0  0  0  0  0
   -6.4730    7.2570   -1.6750 C   0  0  0  0  0  0  0  0  0  0  0  0
   -7.2200    6.8220   -0.4530 C   0  0  0  0  0  0  0  0  0  0  0  0
   -6.8310    6.5700   -2.9560 C   0  0  0  0  0  0  0  0  0  0  0  0
    2.5320   17.8040   -2.9580 O   0  0  0  0  0  0  0  0  0  0  0  0
   -6.3370    8.6820   -1.8000 O   0  0  0  0  0  0  0  0  0  0  0  0
   -0.9989    7.6847   -1.7417 H   0  0  0  0  0  0  0  0  0  0  0  0
   -2.5519    8.2944   -2.4073 H   0  0  0  0  0  0  0  0  0  0  0  0
   -1.0986    9.3501   -2.4073 H   0  0  0  0  0  0  0  0  0  0  0  0
   -1.8408    8.2948    0.2560 H   0  0  0  0  0  0  0  0  0  0  0  0
   -3.6750   10.0989    0.5030 H   0  0  0  0  0  0  0  0  0  0  0  0
   -3.7829    9.9824   -1.3183 H   0  0  0  0  0  0  0  0  0  0  0  0
   -3.8513    7.3747    0.0293 H   0  0  0  0  0  0  0  0  0  0  0  0
   -5.2220    8.4739    0.4755 H   0  0  0  0  0  0  0  0  0  0  0  0
   -4.1589    7.7558   -2.0612 H   0  0  0  0  0  0  0  0  0  0  0  0
   -6.6713    7.1415    0.4453 H   0  0  0  0  0  0  0  0  0  0  0  0
   -8.2208    7.2785   -0.4531 H   0  0  0  0  0  0  0  0  0  0  0  0
   -7.3168    5.7263   -0.4531 H   0  0  0  0  0  0  0  0  0  0  0  0
   -7.3288    5.6147   -2.7331 H   0  0  0  0  0  0  0  0  0  0  0  0
   -7.5101    7.2103   -3.5381 H   0  0  0  0  0  0  0  0  0  0  0  0
   -5.9171    6.3802   -3.5381 H   0  0  0  0  0  0  0  0  0  0  0  0
   -1.9673   11.0231    0.1586 H   0  0  0  0  0  0  0  0  0  0  0  0
   -0.5388   10.3102    1.9727 H   0  0  0  0  0  0  0  0  0  0  0  0
    0.1008    8.9436    1.0346 H   0  0  0  0  0  0  0  0  0  0  0  0
    1.4789   11.3931    1.5533 H   0  0  0  0  0  0  0  0  0  0  0  0
    1.9664   10.2260    0.3271 H   0  0  0  0  0  0  0  0  0  0  0  0
    0.0580   12.8261    1.4307 H   0  0  0  0  0  0  0  0  0  0  0  0
    0.4141   13.9585    0.0826 H   0  0  0  0  0  0  0  0  0  0  0  0
   -1.1141   13.0145    0.0826 H   0  0  0  0  0  0  0  0  0  0  0  0
    2.2671   11.4723   -1.7289 H   0  0  0  0  0  0  0  0  0  0  0  0
    2.9968   12.8353    0.3334 H   0  0  0  0  0  0  0  0  0  0  0  0
    3.7792   13.1029   -1.3112 H   0  0  0  0  0  0  0  0  0  0  0  0
    3.2391   15.2686    0.0883 H   0  0  0  0  0  0  0  0  0  0  0  0
   -0.1699   14.5614   -1.9586 H   0  0  0  0  0  0  0  0  0  0  0  0
    1.8185   15.5461   -4.0964 H   0  0  0  0  0  0  0  0  0  0  0  0
    0.0899   15.0429   -4.3607 H   0  0  0  0  0  0  0  0  0  0  0  0
    0.3567   17.5015   -4.3476 H   0  0  0  0  0  0  0  0  0  0  0  0
   -0.6895   16.8981   -3.0036 H   0  0  0  0  0  0  0  0  0  0  0  0
    0.7724   18.5954   -2.1407 H   0  0  0  0  0  0  0  0  0  0  0  0
    3.0380   16.9890   -2.8000 H   0  0  0  0  0  0  0  0  0  0  0  0
    0.2067   16.9041    0.8036 H   0  0  0  0  0  0  0  0  0  0  0  0
   -0.5172   17.8401   -0.5479 H   0  0  0  0  0  0  0  0  0  0  0  0
   -0.6080   16.0461   -0.5479 H   0  0  0  0  0  0  0  0  0  0  0  0
    2.1620   17.4111    0.9009 H   0  0  0  0  0  0  0  0  0  0  0  0
    3.4044   17.1853   -0.3766 H   0  0  0  0  0  0  0  0  0  0  0  0
    2.3732   18.6561   -0.3766 H   0  0  0  0  0  0  0  0  0  0  0  0
    3.3309   13.0022   -3.2409 H   0  0  0  0  0  0  0  0  0  0  0  0
    2.2075   12.1711   -4.3696 H   0  0  0  0  0  0  0  0  0  0  0  0
    2.3171   13.9640   -4.3696 H   0  0  0  0  0  0  0  0  0  0  0  0
   -0.5723   13.1318   -3.8969 H   0  0  0  0  0  0  0  0  0  0  0  0
    0.3912   11.5495   -3.8516 H   0  0  0  0  0  0  0  0  0  0  0  0
   -1.5751   12.5769   -1.7870 H   0  0  0  0  0  0  0  0  0  0  0  0
   -1.7176   11.1289   -2.8596 H   0  0  0  0  0  0  0  0  0  0  0  0
    0.8252    9.0356   -1.2727 H   0  0  0  0  0  0  0  0  0  0  0  0
   -0.3294    9.2155   -2.6369 H   0  0  0  0  0  0  0  0  0  0  0  0
    1.2117   10.1383   -2.6369 H   0  0  0  0  0  0  0  0  0  0  0  0
  1 12  1  0  0  0  0
  1 33  1  0  0  0  0
  1 34  1  0  0  0  0
  1 35  1  0  0  0  0
  2  3  1  0  0  0  0
  2 48  1  0  0  0  0
  3  4  1  0  0  0  0
  3 49  1  0  0  0  0
  3 50  1  0  0  0  0
  4  5  1  0  0  0  0
  4 51  1  0  0  0  0
  4 52  1  0  0  0  0
  5  6  1  0  0  0  0
  5  7  1  0  0  0  0
  6 53  1  0  0  0  0
  6 54  1  0  0  0  0
  6 55  1  0  0  0  0
  7  8  1  0  0  0  0
  7 56  1  0  0  0  0
  8  9  1  0  0  0  0
  8 57  1  0  0  0  0
  8 58  1  0  0  0  0
  9 10  2  0  0  0  0
  9 59  1  0  0  0  0
 10 11  1  0  0  0  0
 11 13  1  0  0  0  0
 11 19  1  0  0  0  0
 11 60  1  0  0  0  0
  2 12  1  0  0  0  0
 12 22  1  0  0  0  0
 12 36  1  0  0  0  0
 13 14  1  0  0  0  0
 13 61  1  0  0  0  0
 13 62  1  0  0  0  0
 14 15  1  0  0  0  0
 14 63  1  0  0  0  0
 14 64  1  0  0  0  0
 15 16  1  0  0  0  0
 15 31  1  0  0  0  0
 15 65  1  0  0  0  0
 10 16  1  0  0  0  0
 16 17  1  0  0  0  0
 16 18  1  0  0  0  0
 17 67  1  0  0  0  0
 17 68  1  0  0  0  0
 17 69  1  0  0  0  0
 18 70  1  0  0  0  0
 18 71  1  0  0  0  0
 18 72  1  0  0  0  0
  7 19  1  0  0  0  0
 19 20  1  0  0  0  0
 19 21  1  0  0  0  0
 20 73  1  0  0  0  0
 20 74  1  0  0  0  0
 20 75  1  0  0  0  0
 21 23  1  0  0  0  0
 21 76  1  0  0  0  0
 21 77  1  0  0  0  0
 22 26  1  0  0  0  0
 22 37  1  0  0  0  0
 22 38  1  0  0  0  0
 23 24  1  0  0  0  0
 23 78  1  0  0  0  0
 23 79  1  0  0  0  0
  2 24  1  0  0  0  0
  5 24  1  0  0  0  0
 24 25  1  0  0  0  0
 25 80  1  0  0  0  0
 25 81  1  0  0  0  0
 25 82  1  0  0  0  0
 26 27  1  0  0  0  0
 26 39  1  0  0  0  0
 26 40  1  0  0  0  0
 27 32  1  0  0  0  0
 27 41  1  0  0  0  0
 27 28  1  0  0  0  0
 28 29  1  0  0  0  0
 28 30  1  0  0  0  0
 29 42  1  0  0  0  0
 29 43  1  0  0  0  0
 29 44  1  0  0  0  0
 30 45  1  0  0  0  0
 30 46  1  0  0  0  0
 30 47  1  0  0  0  0
 31 66  1  0  0  0  0
 28 32  1  0  0  0  0
M  END
$$$$
