EPH_relaxed_0001_pdb2pqr_Repair_243_r2_0001_out
  PyMOL3.1          3D                             0

 82 86  0  0  1  0  0  0  0  0999 V2000
   -1.6900    8.5870   -1.8860 C   0  0  0  0  0  0  0  0  0  0  0  0
   -1.2170   10.3200   -0.1450 C   0  0  1  0  0  0  0  0  0  0  0  0
   -0.1850   10.0200    0.9760 C   0  0  0  0  0  0  0  0  0  0  0  0
    1.0810   10.8540    0.6520 C   0  0  0  0  0  0  0  0  0  0  0  0
    0.6250   11.8480   -0.4410 C   0  0  1  0  0  0  0  0  0  0  0  0
   -0.0880   12.9990    0.3360 C   0  0  0  0  0  0  0  0  0  0  0  0
    1.7430   12.3960   -1.3870 C   0  0  2  0  0  0  0  0  0  0  0  0
    2.8410   13.2190   -0.6910 C   0  0  0  0  0  0  0  0  0  0  0  0
    2.5830   14.6870   -0.6070 C   0  0  0  0  0  0  0  0  0  0  0  0
    1.6580   15.3590   -1.3160 C   0  0  0  0  0  0  0  0  0  0  0  0
    0.8170   14.6510   -2.3870 C   0  0  1  0  0  0  0  0  0  0  0  0
   -2.0700    9.1070   -0.4960 C   0  0  2  0  0  0  0  0  0  0  0  0
    0.7870   15.5140   -3.6760 C   0  0  0  0  0  0  0  0  0  0  0  0
    0.3160   16.9410   -3.4140 C   0  0  0  0  0  0  0  0  0  0  0  0
    1.2120   17.6310   -2.3880 C   0  0  2  0  0  0  0  0  0  0  0  0
    1.3260   16.8480   -1.0500 C   0  0  0  0  0  0  0  0  0  0  0  0
   -0.0210   16.9180   -0.2890 C   0  0  0  0  0  0  0  0  0  0  0  0
    2.3670   17.5780   -0.1580 C   0  0  0  0  0  0  0  0  0  0  0  0
    1.1970   13.1350   -2.6750 C   0  0  1  0  0  0  0  0  0  0  0  0
    2.3310   13.0650   -3.7430 C   0  0  0  0  0  0  0  0  0  0  0  0
   -0.0490   12.4040   -3.3020 C   0  0  0  0  0  0  0  0  0  0  0  0
   -3.5650    9.4690   -0.4000 C   0  0  0  0  0  0  0  0  0  0  0  0
   -1.0550   11.7790   -2.3170 C   0  0  0  0  0  0  0  0  0  0  0  0
   -0.3380   10.9220   -1.2700 C   0  0  2  0  0  0  0  0  0  0  0  0
    0.3700    9.7430   -2.0200 C   0  0  0  0  0  0  0  0  0  0  0  0
   -4.4850    8.2520   -0.2660 C   0  0  0  0  0  0  0  0  0  0  0  0
   -5.1780    7.9360   -1.5570 C   0  0  2  0  0  0  0  0  0  0  0  0
   -6.5530    7.2990   -1.6340 C   0  0  0  0  0  0  0  0  0  0  0  0
   -7.3170    6.9400   -0.3990 C   0  0  0  0  0  0  0  0  0  0  0  0
   -6.9400    6.5840   -2.8910 C   0  0  0  0  0  0  0  0  0  0  0  0
    2.5130   17.8070   -2.9560 O   0  0  0  0  0  0  0  0  0  0  0  0
   -6.3560    8.7110   -1.8100 O   0  0  0  0  0  0  0  0  0  0  0  0
   -1.0439    7.7028   -1.7827 H   0  0  0  0  0  0  0  0  0  0  0  0
   -2.6018    8.3125   -2.4367 H   0  0  0  0  0  0  0  0  0  0  0  0
   -1.1515    9.3723   -2.4367 H   0  0  0  0  0  0  0  0  0  0  0  0
   -1.8800    8.2973    0.2239 H   0  0  0  0  0  0  0  0  0  0  0  0
   -3.7107   10.1132    0.4797 H   0  0  0  0  0  0  0  0  0  0  0  0
   -3.8347    9.9744   -1.3391 H   0  0  0  0  0  0  0  0  0  0  0  0
   -3.8838    7.3824    0.0380 H   0  0  0  0  0  0  0  0  0  0  0  0
   -5.2524    8.4836    0.4873 H   0  0  0  0  0  0  0  0  0  0  0  0
   -4.2204    7.6849   -2.0365 H   0  0  0  0  0  0  0  0  0  0  0  0
   -6.7294    7.2161    0.4889 H   0  0  0  0  0  0  0  0  0  0  0  0
   -8.2737    7.4828   -0.3889 H   0  0  0  0  0  0  0  0  0  0  0  0
   -7.5098    5.8571   -0.3889 H   0  0  0  0  0  0  0  0  0  0  0  0
   -7.4493    5.6430   -2.6356 H   0  0  0  0  0  0  0  0  0  0  0  0
   -7.6174    7.2193   -3.4805 H   0  0  0  0  0  0  0  0  0  0  0  0
   -6.0377    6.3643   -3.4805 H   0  0  0  0  0  0  0  0  0  0  0  0
   -2.0108   11.0294    0.1320 H   0  0  0  0  0  0  0  0  0  0  0  0
   -0.5923   10.3140    1.9546 H   0  0  0  0  0  0  0  0  0  0  0  0
    0.0496    8.9462    1.0203 H   0  0  0  0  0  0  0  0  0  0  0  0
    1.4302   11.3926    1.5453 H   0  0  0  0  0  0  0  0  0  0  0  0
    1.9205   10.2255    0.3199 H   0  0  0  0  0  0  0  0  0  0  0  0
    0.0164   12.8305    1.4180 H   0  0  0  0  0  0  0  0  0  0  0  0
    0.3721   13.9617    0.0688 H   0  0  0  0  0  0  0  0  0  0  0  0
   -1.1549   13.0158    0.0688 H   0  0  0  0  0  0  0  0  0  0  0  0
    2.2335   11.4736   -1.7314 H   0  0  0  0  0  0  0  0  0  0  0  0
    2.9552   12.8351    0.3335 H   0  0  0  0  0  0  0  0  0  0  0  0
    3.7440   13.1043   -1.3086 H   0  0  0  0  0  0  0  0  0  0  0  0
    3.2011   15.2679    0.0934 H   0  0  0  0  0  0  0  0  0  0  0  0
   -0.1981   14.5669   -1.9716 H   0  0  0  0  0  0  0  0  0  0  0  0
    1.8014   15.5498   -4.1000 H   0  0  0  0  0  0  0  0  0  0  0  0
    0.0732   15.0494   -4.3722 H   0  0  0  0  0  0  0  0  0  0  0  0
    0.3442   17.5082   -4.3561 H   0  0  0  0  0  0  0  0  0  0  0  0
   -0.7094   16.9053   -3.0175 H   0  0  0  0  0  0  0  0  0  0  0  0
    0.7511   18.5999   -2.1456 H   0  0  0  0  0  0  0  0  0  0  0  0
    3.1660   17.5640   -2.2770 H   0  0  0  0  0  0  0  0  0  0  0  0
    0.1690   16.9081    0.7944 H   0  0  0  0  0  0  0  0  0  0  0  0
   -0.5478   17.8447   -0.5604 H   0  0  0  0  0  0  0  0  0  0  0  0
   -0.6410   16.0509   -0.5604 H   0  0  0  0  0  0  0  0  0  0  0  0
    2.1251   17.4084    0.9016 H   0  0  0  0  0  0  0  0  0  0  0  0
    3.3723   17.1860   -0.3719 H   0  0  0  0  0  0  0  0  0  0  0  0
    2.3409   18.6567   -0.3719 H   0  0  0  0  0  0  0  0  0  0  0  0
    3.3066   13.0048   -3.2385 H   0  0  0  0  0  0  0  0  0  0  0  0
    2.1878   12.1740   -4.3720 H   0  0  0  0  0  0  0  0  0  0  0  0
    2.2985   13.9669   -4.3720 H   0  0  0  0  0  0  0  0  0  0  0  0
   -0.5938   13.1391   -3.9126 H   0  0  0  0  0  0  0  0  0  0  0  0
    0.3677   11.5559   -3.8651 H   0  0  0  0  0  0  0  0  0  0  0  0
   -1.6063   12.5830   -1.8074 H   0  0  0  0  0  0  0  0  0  0  0  0
   -1.7458   11.1363   -2.8824 H   0  0  0  0  0  0  0  0  0  0  0  0
    0.7914    9.0413   -1.2851 H   0  0  0  0  0  0  0  0  0  0  0  0
   -0.3621    9.2175   -2.6508 H   0  0  0  0  0  0  0  0  0  0  0  0
    1.1779   10.1423   -2.6508 H   0  0  0  0  0  0  0  0  0  0  0  0
  1 12  1  0  0  0  0
  1 33  1  0  0  0  0
  1 34  1  0  0  0  0
  1 35  1  0  0  0  0
  2  3  1  0  0  0  0
  2 48  1  0  0  0  0
  3  4  1  0  0  0  0
  3 49  1  0  0  0  0
  3 50  1  0  0  0  0
  4  5  1  0  0  0  0
  4 51  1  0  0  0  0
  4 52  1  0  0  0  0
  5  6  1  0  0  0  0
  5  7  1  0  0  0  0
  6 53  1  0  0  0  0
  6 54  1  0  0  0  0
  6 55  1  0  0  0  0
  7  8  1  0  0  0  0
  7 56  1  0  0  0  0
  8  9  1  0  0  0  0
  8 57  1  0  0  0  0
  8 58  1  0  0  0  0
  9 10  2  0  0  0  0
  9 59  1  0  0  0  0
 10 11  1  0  0  0  0
 11 13  1  0  0  0  0
 11 19  1  0  0  0  0
 11 60  1  0  0  0  0
  2 12  1  0  0  0  0
 12 22  1  0  0  0  0
 12 36  1  0  0  0  0
 13 14  1  0  0  0  0
 13 61  1  0  0  0  0
 13 62  1  0  0  0  0
 14 15  1  0  0  0  0
 14 63  1  0  0  0  0
 14 64  1  0  0  0  0
 15 16  1  0  0  0  0
 15 31  1  0  0  0  0
 15 65  1  0  0  0  0
 10 16  1  0  0  0  0
 16 17  1  0  0  0  0
 16 18  1  0  0  0  0
 17 67  1  0  0  0  0
 17 68  1  0  0  0  0
 17 69  1  0  0  0  0
 18 70  1  0  0  0  0
 18 71  1  0  0  0  0
 18 72  1  0  0  0  0
  7 19  1  0  0  0  0
 19 20  1  0  0  0  0
 19 21  1  0  0  0  0
 20 73  1  0  0  0  0
 20 74  1  0  0  0  0
 20 75  1  0  0  0  0
 21 23  1  0  0  0  0
 21 76  1  0  0  0  0
 21 77  1  0  0  0  0
 22 26  1  0  0  0  0
 22 37  1  0  0  0  0
 22 38  1  0  0  0  0
 23 24  1  0  0  0  0
 23 78  1  0  0  0  0
 23 79  1  0  0  0  0
  2 24  1  0  0  0  0
  5 24  1  0  0  0  0
 24 25  1  0  0  0  0
 25 80  1  0  0  0  0
 25 81  1  0  0  0  0
 25 82  1  0  0  0  0
 26 27  1  0  0  0  0
 26 39  1  0  0  0  0
 26 40  1  0  0  0  0
 27 32  1  0  0  0  0
 27 41  1  0  0  0  0
 27 28  1  0  0  0  0
 28 29  1  0  0  0  0
 28 30  1  0  0  0  0
 29 42  1  0  0  0  0
 29 43  1  0  0  0  0
 29 44  1  0  0  0  0
 30 45  1  0  0  0  0
 30 46  1  0  0  0  0
 30 47  1  0  0  0  0
 31 66  1  0  0  0  0
 28 32  1  0  0  0  0
M  END
$$$$
