EPH_relaxed_0001_pdb2pqr_Repair_213_r2_0001_out
  PyMOL3.1          3D                             0

 82 86  0  0  1  0  0  0  0  0999 V2000
   -1.7020    8.5820   -1.8840 C   0  0  0  0  0  0  0  0  0  0  0  0
   -1.2220   10.3160   -0.1450 C   0  0  1  0  0  0  0  0  0  0  0  0
   -0.1950   10.0130    0.9780 C   0  0  0  0  0  0  0  0  0  0  0  0
    1.0770   10.8390    0.6560 C   0  0  0  0  0  0  0  0  0  0  0  0
    0.6280   11.8340   -0.4410 C   0  0  1  0  0  0  0  0  0  0  0  0
   -0.0800   12.9900    0.3320 C   0  0  0  0  0  0  0  0  0  0  0  0
    1.7510   12.3740   -1.3850 C   0  0  2  0  0  0  0  0  0  0  0  0
    2.8530   13.1910   -0.6880 C   0  0  0  0  0  0  0  0  0  0  0  0
    2.6020   14.6610   -0.6080 C   0  0  0  0  0  0  0  0  0  0  0  0
    1.6820   15.3370   -1.3210 C   0  0  0  0  0  0  0  0  0  0  0  0
    0.8410   14.6310   -2.3920 C   0  0  1  0  0  0  0  0  0  0  0  0
   -2.0810    9.1070   -0.4960 C   0  0  2  0  0  0  0  0  0  0  0  0
    0.8180   15.4910   -3.6830 C   0  0  0  0  0  0  0  0  0  0  0  0
    0.3540   16.9220   -3.4250 C   0  0  0  0  0  0  0  0  0  0  0  0
    1.2510   17.6090   -2.3980 C   0  0  2  0  0  0  0  0  0  0  0  0
    1.3580   16.8280   -1.0580 C   0  0  0  0  0  0  0  0  0  0  0  0
    0.0100   16.9070   -0.3010 C   0  0  0  0  0  0  0  0  0  0  0  0
    2.4000   17.5540   -0.1650 C   0  0  0  0  0  0  0  0  0  0  0  0
    1.2130   13.1130   -2.6760 C   0  0  1  0  0  0  0  0  0  0  0  0
    2.3490   13.0340   -3.7410 C   0  0  0  0  0  0  0  0  0  0  0  0
   -0.0360   12.3870   -3.3040 C   0  0  0  0  0  0  0  0  0  0  0  0
   -3.5750    9.4770   -0.4040 C   0  0  0  0  0  0  0  0  0  0  0  0
   -1.0480   11.7700   -2.3200 C   0  0  0  0  0  0  0  0  0  0  0  0
   -0.3380   10.9110   -1.2690 C   0  0  2  0  0  0  0  0  0  0  0  0
    0.3660    9.7270   -2.0150 C   0  0  0  0  0  0  0  0  0  0  0  0
   -4.5010    8.2660   -0.2610 C   0  0  0  0  0  0  0  0  0  0  0  0
   -5.1910    7.9410   -1.5520 C   0  0  2  0  0  0  0  0  0  0  0  0
   -6.5810    7.3390   -1.6290 C   0  0  0  0  0  0  0  0  0  0  0  0
   -7.3660    7.0260   -0.3930 C   0  0  0  0  0  0  0  0  0  0  0  0
   -6.9770    6.6080   -2.8740 C   0  0  0  0  0  0  0  0  0  0  0  0
    2.5550   17.7760   -2.9630 O   0  0  0  0  0  0  0  0  0  0  0  0
   -6.3460    8.7420   -1.8320 O   0  0  0  0  0  0  0  0  0  0  0  0
   -1.0612    7.6943   -1.7778 H   0  0  0  0  0  0  0  0  0  0  0  0
   -2.6145    8.3116   -2.4355 H   0  0  0  0  0  0  0  0  0  0  0  0
   -1.1581    9.3630   -2.4355 H   0  0  0  0  0  0  0  0  0  0  0  0
   -1.8960    8.2980    0.2260 H   0  0  0  0  0  0  0  0  0  0  0  0
   -3.7182   10.1289    0.4704 H   0  0  0  0  0  0  0  0  0  0  0  0
   -3.8414    9.9760   -1.3474 H   0  0  0  0  0  0  0  0  0  0  0  0
   -3.9051    7.3966    0.0536 H   0  0  0  0  0  0  0  0  0  0  0  0
   -5.2697    8.5082    0.4876 H   0  0  0  0  0  0  0  0  0  0  0  0
   -4.2362    7.6545   -2.0171 H   0  0  0  0  0  0  0  0  0  0  0  0
   -6.7630    7.2664    0.4950 H   0  0  0  0  0  0  0  0  0  0  0  0
   -8.2885    7.6251   -0.3830 H   0  0  0  0  0  0  0  0  0  0  0  0
   -7.6232    5.9565   -0.3830 H   0  0  0  0  0  0  0  0  0  0  0  0
   -7.4848    5.6706   -2.6030 H   0  0  0  0  0  0  0  0  0  0  0  0
   -7.6583    7.2359   -3.4669 H   0  0  0  0  0  0  0  0  0  0  0  0
   -6.0789    6.3803   -3.4669 H   0  0  0  0  0  0  0  0  0  0  0  0
   -2.0124   11.0301    0.1294 H   0  0  0  0  0  0  0  0  0  0  0  0
   -0.6031   10.3113    1.9550 H   0  0  0  0  0  0  0  0  0  0  0  0
    0.0335    8.9380    1.0245 H   0  0  0  0  0  0  0  0  0  0  0  0
    1.4270   11.3774    1.5491 H   0  0  0  0  0  0  0  0  0  0  0  0
    1.9142   10.2055    0.3277 H   0  0  0  0  0  0  0  0  0  0  0  0
    0.0220   12.8235    1.4145 H   0  0  0  0  0  0  0  0  0  0  0  0
    0.3854   13.9498    0.0632 H   0  0  0  0  0  0  0  0  0  0  0  0
   -1.1464   13.0116    0.0632 H   0  0  0  0  0  0  0  0  0  0  0  0
    2.2366   11.4480   -1.7265 H   0  0  0  0  0  0  0  0  0  0  0  0
    2.9629   12.8085    0.3375 H   0  0  0  0  0  0  0  0  0  0  0  0
    3.7573   13.0693   -1.3023 H   0  0  0  0  0  0  0  0  0  0  0  0
    3.2212   15.2402    0.0928 H   0  0  0  0  0  0  0  0  0  0  0  0
   -0.1751   14.5529   -1.9781 H   0  0  0  0  0  0  0  0  0  0  0  0
    1.8333   15.5203   -4.1053 H   0  0  0  0  0  0  0  0  0  0  0  0
    0.1030   15.0287   -4.3794 H   0  0  0  0  0  0  0  0  0  0  0  0
    0.3880   17.4872   -4.3681 H   0  0  0  0  0  0  0  0  0  0  0  0
   -0.6727   16.8929   -3.0312 H   0  0  0  0  0  0  0  0  0  0  0  0
    0.7944   18.5808   -2.1589 H   0  0  0  0  0  0  0  0  0  0  0  0
    2.5770   17.2860   -3.8020 H   0  0  0  0  0  0  0  0  0  0  0  0
    0.1970   16.8960    0.7829 H   0  0  0  0  0  0  0  0  0  0  0  0
   -0.5099   17.8372   -0.5740 H   0  0  0  0  0  0  0  0  0  0  0  0
   -0.6150   16.0439   -0.5740 H   0  0  0  0  0  0  0  0  0  0  0  0
    2.1566   17.3844    0.8943 H   0  0  0  0  0  0  0  0  0  0  0  0
    3.4043   17.1591   -0.3783 H   0  0  0  0  0  0  0  0  0  0  0  0
    2.3774   18.6329   -0.3783 H   0  0  0  0  0  0  0  0  0  0  0  0
    3.3228   12.9663   -3.2340 H   0  0  0  0  0  0  0  0  0  0  0  0
    2.2005   12.1440   -4.3702 H   0  0  0  0  0  0  0  0  0  0  0  0
    2.3251   13.9360   -4.3702 H   0  0  0  0  0  0  0  0  0  0  0  0
   -0.5753   13.1235   -3.9178 H   0  0  0  0  0  0  0  0  0  0  0  0
    0.3775   11.5350   -3.8636 H   0  0  0  0  0  0  0  0  0  0  0  0
   -1.5959   12.5783   -1.8135 H   0  0  0  0  0  0  0  0  0  0  0  0
   -1.7412   11.1300   -2.8856 H   0  0  0  0  0  0  0  0  0  0  0  0
    0.7832    9.0254   -1.2777 H   0  0  0  0  0  0  0  0  0  0  0  0
   -0.3674    9.2031   -2.6456 H   0  0  0  0  0  0  0  0  0  0  0  0
    1.1766   10.1211   -2.6456 H   0  0  0  0  0  0  0  0  0  0  0  0
  1 12  1  0  0  0  0
  1 33  1  0  0  0  0
  1 34  1  0  0  0  0
  1 35  1  0  0  0  0
  2  3  1  0  0  0  0
  2 48  1  0  0  0  0
  3  4  1  0  0  0  0
  3 49  1  0  0  0  0
  3 50  1  0  0  0  0
  4  5  1  0  0  0  0
  4 51  1  0  0  0  0
  4 52  1  0  0  0  0
  5  6  1  0  0  0  0
  5  7  1  0  0  0  0
  6 53  1  0  0  0  0
  6 54  1  0  0  0  0
  6 55  1  0  0  0  0
  7  8  1  0  0  0  0
  7 56  1  0  0  0  0
  8  9  1  0  0  0  0
  8 57  1  0  0  0  0
  8 58  1  0  0  0  0
  9 10  2  0  0  0  0
  9 59  1  0  0  0  0
 10 11  1  0  0  0  0
 11 13  1  0  0  0  0
 11 19  1  0  0  0  0
 11 60  1  0  0  0  0
  2 12  1  0  0  0  0
 12 22  1  0  0  0  0
 12 36  1  0  0  0  0
 13 14  1  0  0  0  0
 13 61  1  0  0  0  0
 13 62  1  0  0  0  0
 14 15  1  0  0  0  0
 14 63  1  0  0  0  0
 14 64  1  0  0  0  0
 15 16  1  0  0  0  0
 15 31  1  0  0  0  0
 15 65  1  0  0  0  0
 10 16  1  0  0  0  0
 16 17  1  0  0  0  0
 16 18  1  0  0  0  0
 17 67  1  0  0  0  0
 17 68  1  0  0  0  0
 17 69  1  0  0  0  0
 18 70  1  0  0  0  0
 18 71  1  0  0  0  0
 18 72  1  0  0  0  0
  7 19  1  0  0  0  0
 19 20  1  0  0  0  0
 19 21  1  0  0  0  0
 20 73  1  0  0  0  0
 20 74  1  0  0  0  0
 20 75  1  0  0  0  0
 21 23  1  0  0  0  0
 21 76  1  0  0  0  0
 21 77  1  0  0  0  0
 22 26  1  0  0  0  0
 22 37  1  0  0  0  0
 22 38  1  0  0  0  0
 23 24  1  0  0  0  0
 23 78  1  0  0  0  0
 23 79  1  0  0  0  0
  2 24  1  0  0  0  0
  5 24  1  0  0  0  0
 24 25  1  0  0  0  0
 25 80  1  0  0  0  0
 25 81  1  0  0  0  0
 25 82  1  0  0  0  0
 26 27  1  0  0  0  0
 26 39  1  0  0  0  0
 26 40  1  0  0  0  0
 27 32  1  0  0  0  0
 27 41  1  0  0  0  0
 27 28  1  0  0  0  0
 28 29  1  0  0  0  0
 28 30  1  0  0  0  0
 29 42  1  0  0  0  0
 29 43  1  0  0  0  0
 29 44  1  0  0  0  0
 30 45  1  0  0  0  0
 30 46  1  0  0  0  0
 30 47  1  0  0  0  0
 31 66  1  0  0  0  0
 28 32  1  0  0  0  0
M  END
$$$$
