EPH_relaxed_0001_pdb2pqr_Repair_22_r2_0001_out
  PyMOL3.1          3D                             0

 82 86  0  0  1  0  0  0  0  0999 V2000
   -1.7170    8.5770   -1.8740 C   0  0  0  0  0  0  0  0  0  0  0  0
   -1.2520   10.3130   -0.1340 C   0  0  1  0  0  0  0  0  0  0  0  0
   -0.2340   10.0140    0.9980 C   0  0  0  0  0  0  0  0  0  0  0  0
    1.0400   10.8410    0.6850 C   0  0  0  0  0  0  0  0  0  0  0  0
    0.5990   11.8320   -0.4180 C   0  0  1  0  0  0  0  0  0  0  0  0
   -0.1170   12.9900    0.3470 C   0  0  0  0  0  0  0  0  0  0  0  0
    1.7290   12.3720   -1.3540 C   0  0  2  0  0  0  0  0  0  0  0  0
    2.8240   13.1920   -0.6500 C   0  0  0  0  0  0  0  0  0  0  0  0
    2.5710   14.6610   -0.5750 C   0  0  0  0  0  0  0  0  0  0  0  0
    1.6560   15.3350   -1.2960 C   0  0  0  0  0  0  0  0  0  0  0  0
    0.8240   14.6260   -2.3730 C   0  0  1  0  0  0  0  0  0  0  0  0
   -2.1070    9.1020   -0.4900 C   0  0  2  0  0  0  0  0  0  0  0  0
    0.8110   15.4840   -3.6660 C   0  0  0  0  0  0  0  0  0  0  0  0
    0.3430   16.9140   -3.4140 C   0  0  0  0  0  0  0  0  0  0  0  0
    1.2310   17.6040   -2.3820 C   0  0  2  0  0  0  0  0  0  0  0  0
    1.3280   16.8270   -1.0400 C   0  0  0  0  0  0  0  0  0  0  0  0
   -0.0270   16.9050   -0.2930 C   0  0  0  0  0  0  0  0  0  0  0  0
    2.3620   17.5560   -0.1400 C   0  0  0  0  0  0  0  0  0  0  0  0
    1.2000   13.1070   -2.6510 C   0  0  1  0  0  0  0  0  0  0  0  0
    2.3450   13.0280   -3.7070 C   0  0  0  0  0  0  0  0  0  0  0  0
   -0.0420   12.3790   -3.2880 C   0  0  0  0  0  0  0  0  0  0  0  0
   -3.6020    9.4700   -0.4070 C   0  0  0  0  0  0  0  0  0  0  0  0
   -1.0620   11.7630   -2.3110 C   0  0  0  0  0  0  0  0  0  0  0  0
   -0.3600   10.9070   -1.2520 C   0  0  2  0  0  0  0  0  0  0  0  0
    0.3510    9.7220   -1.9900 C   0  0  0  0  0  0  0  0  0  0  0  0
   -4.5260    8.2590   -0.2520 C   0  0  0  0  0  0  0  0  0  0  0  0
   -5.2150    7.9190   -1.5390 C   0  0  2  0  0  0  0  0  0  0  0  0
   -6.6370    7.3950   -1.6130 C   0  0  0  0  0  0  0  0  0  0  0  0
   -7.4550    7.1800   -0.3780 C   0  0  0  0  0  0  0  0  0  0  0  0
   -7.0570    6.6350   -2.8320 C   0  0  0  0  0  0  0  0  0  0  0  0
    2.5390   17.7720   -2.9370 O   0  0  0  0  0  0  0  0  0  0  0  0
   -6.3190    8.7720   -1.8700 O   0  0  0  0  0  0  0  0  0  0  0  0
   -1.0644    7.6985   -1.7624 H   0  0  0  0  0  0  0  0  0  0  0  0
   -2.6241    8.2920   -2.4271 H   0  0  0  0  0  0  0  0  0  0  0  0
   -1.1822    9.3632   -2.4271 H   0  0  0  0  0  0  0  0  0  0  0  0
   -1.9264    8.2930    0.2331 H   0  0  0  0  0  0  0  0  0  0  0  0
   -3.7491   10.1322    0.4589 H   0  0  0  0  0  0  0  0  0  0  0  0
   -3.8666    9.9568   -1.3573 H   0  0  0  0  0  0  0  0  0  0  0  0
   -3.9287    7.3940    0.0719 H   0  0  0  0  0  0  0  0  0  0  0  0
   -5.2955    8.5081    0.4935 H   0  0  0  0  0  0  0  0  0  0  0  0
   -4.2722    7.5590   -1.9766 H   0  0  0  0  0  0  0  0  0  0  0  0
   -6.8278    7.3448    0.5105 H   0  0  0  0  0  0  0  0  0  0  0  0
   -8.2975    7.8872   -0.3685 H   0  0  0  0  0  0  0  0  0  0  0  0
   -7.8408    6.1499   -0.3685 H   0  0  0  0  0  0  0  0  0  0  0  0
   -7.5685    5.7095   -2.5289 H   0  0  0  0  0  0  0  0  0  0  0  0
   -7.7417    7.2529   -3.4315 H   0  0  0  0  0  0  0  0  0  0  0  0
   -6.1695    6.3840   -3.4315 H   0  0  0  0  0  0  0  0  0  0  0  0
   -2.0456   11.0264    0.1329 H   0  0  0  0  0  0  0  0  0  0  0  0
   -0.6506   10.3139    1.9709 H   0  0  0  0  0  0  0  0  0  0  0  0
   -0.0044    8.9394    1.0486 H   0  0  0  0  0  0  0  0  0  0  0  0
    1.3815   11.3822    1.5797 H   0  0  0  0  0  0  0  0  0  0  0  0
    1.8810   10.2079    0.3658 H   0  0  0  0  0  0  0  0  0  0  0  0
   -0.0179   12.8298    1.4308 H   0  0  0  0  0  0  0  0  0  0  0  0
    0.3452   13.9503    0.0745 H   0  0  0  0  0  0  0  0  0  0  0  0
   -1.1826   13.0056    0.0745 H   0  0  0  0  0  0  0  0  0  0  0  0
    2.2193   11.4462   -1.6894 H   0  0  0  0  0  0  0  0  0  0  0  0
    2.9260   12.8117    0.3771 H   0  0  0  0  0  0  0  0  0  0  0  0
    3.7332   13.0703   -1.2570 H   0  0  0  0  0  0  0  0  0  0  0  0
    3.1844   15.2421    0.1293 H   0  0  0  0  0  0  0  0  0  0  0  0
   -0.1956   14.5477   -1.9676 H   0  0  0  0  0  0  0  0  0  0  0  0
    1.8298   15.5141   -4.0796 H   0  0  0  0  0  0  0  0  0  0  0  0
    0.1029   15.0196   -4.3680 H   0  0  0  0  0  0  0  0  0  0  0  0
    0.3830   17.4776   -4.3578 H   0  0  0  0  0  0  0  0  0  0  0  0
   -0.6865   16.8839   -3.0277 H   0  0  0  0  0  0  0  0  0  0  0  0
    0.7713   18.5758   -2.1488 H   0  0  0  0  0  0  0  0  0  0  0  0
    2.4750   17.6120   -3.8940 H   0  0  0  0  0  0  0  0  0  0  0  0
    0.1515   16.8947    0.7924 H   0  0  0  0  0  0  0  0  0  0  0  0
   -0.5457   17.8345   -0.5705 H   0  0  0  0  0  0  0  0  0  0  0  0
   -0.6489   16.0412   -0.5705 H   0  0  0  0  0  0  0  0  0  0  0  0
    2.1149   17.3818    0.9176 H   0  0  0  0  0  0  0  0  0  0  0  0
    3.3694   17.1673   -0.3500 H   0  0  0  0  0  0  0  0  0  0  0  0
    2.3343   18.6354   -0.3500 H   0  0  0  0  0  0  0  0  0  0  0  0
    3.3147   12.9611   -3.1921 H   0  0  0  0  0  0  0  0  0  0  0  0
    2.2021   12.1376   -4.3369 H   0  0  0  0  0  0  0  0  0  0  0  0
    2.3257   13.9296   -4.3369 H   0  0  0  0  0  0  0  0  0  0  0  0
   -0.5766   13.1137   -3.9079 H   0  0  0  0  0  0  0  0  0  0  0  0
    0.3770   11.5264   -3.8425 H   0  0  0  0  0  0  0  0  0  0  0  0
   -1.6150   12.5718   -1.8110 H   0  0  0  0  0  0  0  0  0  0  0  0
   -1.7497   11.1211   -2.8810 H   0  0  0  0  0  0  0  0  0  0  0  0
    0.7688    9.0257   -1.2479 H   0  0  0  0  0  0  0  0  0  0  0  0
   -0.3784    9.1920   -2.6201 H   0  0  0  0  0  0  0  0  0  0  0  0
    1.1619   10.1162   -2.6201 H   0  0  0  0  0  0  0  0  0  0  0  0
  1 12  1  0  0  0  0
  1 33  1  0  0  0  0
  1 34  1  0  0  0  0
  1 35  1  0  0  0  0
  2  3  1  0  0  0  0
  2 48  1  0  0  0  0
  3  4  1  0  0  0  0
  3 49  1  0  0  0  0
  3 50  1  0  0  0  0
  4  5  1  0  0  0  0
  4 51  1  0  0  0  0
  4 52  1  0  0  0  0
  5  6  1  0  0  0  0
  5  7  1  0  0  0  0
  6 53  1  0  0  0  0
  6 54  1  0  0  0  0
  6 55  1  0  0  0  0
  7  8  1  0  0  0  0
  7 56  1  0  0  0  0
  8  9  1  0  0  0  0
  8 57  1  0  0  0  0
  8 58  1  0  0  0  0
  9 10  2  0  0  0  0
  9 59  1  0  0  0  0
 10 11  1  0  0  0  0
 11 13  1  0  0  0  0
 11 19  1  0  0  0  0
 11 60  1  0  0  0  0
  2 12  1  0  0  0  0
 12 22  1  0  0  0  0
 12 36  1  0  0  0  0
 13 14  1  0  0  0  0
 13 61  1  0  0  0  0
 13 62  1  0  0  0  0
 14 15  1  0  0  0  0
 14 63  1  0  0  0  0
 14 64  1  0  0  0  0
 15 16  1  0  0  0  0
 15 31  1  0  0  0  0
 15 65  1  0  0  0  0
 10 16  1  0  0  0  0
 16 17  1  0  0  0  0
 16 18  1  0  0  0  0
 17 67  1  0  0  0  0
 17 68  1  0  0  0  0
 17 69  1  0  0  0  0
 18 70  1  0  0  0  0
 18 71  1  0  0  0  0
 18 72  1  0  0  0  0
  7 19  1  0  0  0  0
 19 20  1  0  0  0  0
 19 21  1  0  0  0  0
 20 73  1  0  0  0  0
 20 74  1  0  0  0  0
 20 75  1  0  0  0  0
 21 23  1  0  0  0  0
 21 76  1  0  0  0  0
 21 77  1  0  0  0  0
 22 26  1  0  0  0  0
 22 37  1  0  0  0  0
 22 38  1  0  0  0  0
 23 24  1  0  0  0  0
 23 78  1  0  0  0  0
 23 79  1  0  0  0  0
  2 24  1  0  0  0  0
  5 24  1  0  0  0  0
 24 25  1  0  0  0  0
 25 80  1  0  0  0  0
 25 81  1  0  0  0  0
 25 82  1  0  0  0  0
 26 27  1  0  0  0  0
 26 39  1  0  0  0  0
 26 40  1  0  0  0  0
 27 32  1  0  0  0  0
 27 41  1  0  0  0  0
 27 28  1  0  0  0  0
 28 29  1  0  0  0  0
 28 30  1  0  0  0  0
 29 42  1  0  0  0  0
 29 43  1  0  0  0  0
 29 44  1  0  0  0  0
 30 45  1  0  0  0  0
 30 46  1  0  0  0  0
 30 47  1  0  0  0  0
 31 66  1  0  0  0  0
 28 32  1  0  0  0  0
M  END
$$$$
