EPH_relaxed_0001_pdb2pqr_Repair_271_r2_0001_out
  PyMOL3.1          3D                             0

 82 86  0  0  1  0  0  0  0  0999 V2000
   -1.7060    8.5840   -1.8630 C   0  0  0  0  0  0  0  0  0  0  0  0
   -1.2320   10.3220   -0.1270 C   0  0  1  0  0  0  0  0  0  0  0  0
   -0.2030   10.0170    0.9930 C   0  0  0  0  0  0  0  0  0  0  0  0
    1.0680   10.8430    0.6710 C   0  0  0  0  0  0  0  0  0  0  0  0
    0.6190   11.8400   -0.4230 C   0  0  1  0  0  0  0  0  0  0  0  0
   -0.0880   12.9950    0.3530 C   0  0  0  0  0  0  0  0  0  0  0  0
    1.7400   12.3810   -1.3680 C   0  0  2  0  0  0  0  0  0  0  0  0
    2.8430   13.1960   -0.6710 C   0  0  0  0  0  0  0  0  0  0  0  0
    2.5940   14.6660   -0.5880 C   0  0  0  0  0  0  0  0  0  0  0  0
    1.6730   15.3440   -1.2980 C   0  0  0  0  0  0  0  0  0  0  0  0
    0.8290   14.6410   -2.3690 C   0  0  1  0  0  0  0  0  0  0  0  0
   -2.0920    9.1140   -0.4800 C   0  0  2  0  0  0  0  0  0  0  0  0
    0.8050   15.5030   -3.6580 C   0  0  0  0  0  0  0  0  0  0  0  0
    0.3430   16.9340   -3.3970 C   0  0  0  0  0  0  0  0  0  0  0  0
    1.2410   17.6180   -2.3700 C   0  0  2  0  0  0  0  0  0  0  0  0
    1.3500   16.8350   -1.0320 C   0  0  0  0  0  0  0  0  0  0  0  0
    0.0030   16.9130   -0.2720 C   0  0  0  0  0  0  0  0  0  0  0  0
    2.3940   17.5590   -0.1390 C   0  0  0  0  0  0  0  0  0  0  0  0
    1.2000   13.1230   -2.6570 C   0  0  1  0  0  0  0  0  0  0  0  0
    2.3350   13.0450   -3.7240 C   0  0  0  0  0  0  0  0  0  0  0  0
   -0.0500   12.3990   -3.2840 C   0  0  0  0  0  0  0  0  0  0  0  0
   -3.5860    9.4890   -0.3980 C   0  0  0  0  0  0  0  0  0  0  0  0
   -1.0610   11.7800   -2.3000 C   0  0  0  0  0  0  0  0  0  0  0  0
   -0.3500   10.9190   -1.2520 C   0  0  2  0  0  0  0  0  0  0  0  0
    0.3520    9.7360   -2.0010 C   0  0  0  0  0  0  0  0  0  0  0  0
   -4.5150    8.2820   -0.2420 C   0  0  0  0  0  0  0  0  0  0  0  0
   -5.2000    7.9390   -1.5310 C   0  0  2  0  0  0  0  0  0  0  0  0
   -6.5910    7.3390   -1.6050 C   0  0  0  0  0  0  0  0  0  0  0  0
   -7.3820    7.0460   -0.3680 C   0  0  0  0  0  0  0  0  0  0  0  0
   -6.9830    6.5910   -2.8410 C   0  0  0  0  0  0  0  0  0  0  0  0
    2.5440   17.7860   -2.9370 O   0  0  0  0  0  0  0  0  0  0  0  0
   -6.3520    8.7390   -1.8270 O   0  0  0  0  0  0  0  0  0  0  0  0
   -1.0618    7.6995   -1.7500 H   0  0  0  0  0  0  0  0  0  0  0  0
   -2.6154    8.3070   -2.4165 H   0  0  0  0  0  0  0  0  0  0  0  0
   -1.1634    9.3645   -2.4165 H   0  0  0  0  0  0  0  0  0  0  0  0
   -1.9137    8.3063    0.2451 H   0  0  0  0  0  0  0  0  0  0  0  0
   -3.7306   10.1528    0.4671 H   0  0  0  0  0  0  0  0  0  0  0  0
   -3.8482    9.9762   -1.3488 H   0  0  0  0  0  0  0  0  0  0  0  0
   -3.9222    7.4162    0.0880 H   0  0  0  0  0  0  0  0  0  0  0  0
   -5.2868    8.5369    0.4992 H   0  0  0  0  0  0  0  0  0  0  0  0
   -4.2442    7.6431   -1.9880 H   0  0  0  0  0  0  0  0  0  0  0  0
   -6.7722    7.2719    0.5192 H   0  0  0  0  0  0  0  0  0  0  0  0
   -8.2894    7.6677   -0.3572 H   0  0  0  0  0  0  0  0  0  0  0  0
   -7.6655    5.9832   -0.3572 H   0  0  0  0  0  0  0  0  0  0  0  0
   -7.4765    5.6493   -2.5587 H   0  0  0  0  0  0  0  0  0  0  0  0
   -7.6758    7.2039   -3.4363 H   0  0  0  0  0  0  0  0  0  0  0  0
   -6.0848    6.3701   -3.4363 H   0  0  0  0  0  0  0  0  0  0  0  0
   -2.0217   11.0353    0.1515 H   0  0  0  0  0  0  0  0  0  0  0  0
   -0.6093   10.3133    1.9713 H   0  0  0  0  0  0  0  0  0  0  0  0
    0.0257    8.9419    1.0365 H   0  0  0  0  0  0  0  0  0  0  0  0
    1.4192   11.3795    1.5648 H   0  0  0  0  0  0  0  0  0  0  0  0
    1.9043   10.2096    0.3402 H   0  0  0  0  0  0  0  0  0  0  0  0
    0.0151   12.8266    1.4351 H   0  0  0  0  0  0  0  0  0  0  0  0
    0.3773   13.9551    0.0854 H   0  0  0  0  0  0  0  0  0  0  0  0
   -1.1547   13.0173    0.0854 H   0  0  0  0  0  0  0  0  0  0  0  0
    2.2244   11.4556   -1.7128 H   0  0  0  0  0  0  0  0  0  0  0  0
    2.9536   12.8116    0.3537 H   0  0  0  0  0  0  0  0  0  0  0  0
    3.7463   13.0747   -1.2869 H   0  0  0  0  0  0  0  0  0  0  0  0
    3.2155   15.2434    0.1123 H   0  0  0  0  0  0  0  0  0  0  0  0
   -0.1865   14.5633   -1.9535 H   0  0  0  0  0  0  0  0  0  0  0  0
    1.8197   15.5319   -4.0817 H   0  0  0  0  0  0  0  0  0  0  0  0
    0.0883   15.0426   -4.3540 H   0  0  0  0  0  0  0  0  0  0  0  0
    0.3769   17.5008   -4.3391 H   0  0  0  0  0  0  0  0  0  0  0  0
   -0.6833   16.9052   -3.0023 H   0  0  0  0  0  0  0  0  0  0  0  0
    0.7846   18.5891   -2.1277 H   0  0  0  0  0  0  0  0  0  0  0  0
    2.7970   18.7180   -2.8230 H   0  0  0  0  0  0  0  0  0  0  0  0
    0.1922   16.9020    0.8116 H   0  0  0  0  0  0  0  0  0  0  0  0
   -0.5181   17.8428   -0.5439 H   0  0  0  0  0  0  0  0  0  0  0  0
   -0.6219   16.0495   -0.5439 H   0  0  0  0  0  0  0  0  0  0  0  0
    2.1504   17.3901    0.9203 H   0  0  0  0  0  0  0  0  0  0  0  0
    3.3974   17.1618   -0.3524 H   0  0  0  0  0  0  0  0  0  0  0  0
    2.3737   18.6379   -0.3524 H   0  0  0  0  0  0  0  0  0  0  0  0
    3.3096   12.9780   -3.2184 H   0  0  0  0  0  0  0  0  0  0  0  0
    2.1863   12.1550   -4.3531 H   0  0  0  0  0  0  0  0  0  0  0  0
    2.3095   13.9470   -4.3531 H   0  0  0  0  0  0  0  0  0  0  0  0
   -0.5900   13.1371   -3.8953 H   0  0  0  0  0  0  0  0  0  0  0  0
    0.3625   11.5479   -3.8457 H   0  0  0  0  0  0  0  0  0  0  0  0
   -1.6082   12.5873   -1.7912 H   0  0  0  0  0  0  0  0  0  0  0  0
   -1.7550   11.1413   -2.8661 H   0  0  0  0  0  0  0  0  0  0  0  0
    0.7694    9.0326   -1.2655 H   0  0  0  0  0  0  0  0  0  0  0  0
   -0.3826    9.2140   -2.6318 H   0  0  0  0  0  0  0  0  0  0  0  0
    1.1622   10.1307   -2.6318 H   0  0  0  0  0  0  0  0  0  0  0  0
  1 12  1  0  0  0  0
  1 33  1  0  0  0  0
  1 34  1  0  0  0  0
  1 35  1  0  0  0  0
  2  3  1  0  0  0  0
  2 48  1  0  0  0  0
  3  4  1  0  0  0  0
  3 49  1  0  0  0  0
  3 50  1  0  0  0  0
  4  5  1  0  0  0  0
  4 51  1  0  0  0  0
  4 52  1  0  0  0  0
  5  6  1  0  0  0  0
  5  7  1  0  0  0  0
  6 53  1  0  0  0  0
  6 54  1  0  0  0  0
  6 55  1  0  0  0  0
  7  8  1  0  0  0  0
  7 56  1  0  0  0  0
  8  9  1  0  0  0  0
  8 57  1  0  0  0  0
  8 58  1  0  0  0  0
  9 10  2  0  0  0  0
  9 59  1  0  0  0  0
 10 11  1  0  0  0  0
 11 13  1  0  0  0  0
 11 19  1  0  0  0  0
 11 60  1  0  0  0  0
  2 12  1  0  0  0  0
 12 22  1  0  0  0  0
 12 36  1  0  0  0  0
 13 14  1  0  0  0  0
 13 61  1  0  0  0  0
 13 62  1  0  0  0  0
 14 15  1  0  0  0  0
 14 63  1  0  0  0  0
 14 64  1  0  0  0  0
 15 16  1  0  0  0  0
 15 31  1  0  0  0  0
 15 65  1  0  0  0  0
 10 16  1  0  0  0  0
 16 17  1  0  0  0  0
 16 18  1  0  0  0  0
 17 67  1  0  0  0  0
 17 68  1  0  0  0  0
 17 69  1  0  0  0  0
 18 70  1  0  0  0  0
 18 71  1  0  0  0  0
 18 72  1  0  0  0  0
  7 19  1  0  0  0  0
 19 20  1  0  0  0  0
 19 21  1  0  0  0  0
 20 73  1  0  0  0  0
 20 74  1  0  0  0  0
 20 75  1  0  0  0  0
 21 23  1  0  0  0  0
 21 76  1  0  0  0  0
 21 77  1  0  0  0  0
 22 26  1  0  0  0  0
 22 37  1  0  0  0  0
 22 38  1  0  0  0  0
 23 24  1  0  0  0  0
 23 78  1  0  0  0  0
 23 79  1  0  0  0  0
  2 24  1  0  0  0  0
  5 24  1  0  0  0  0
 24 25  1  0  0  0  0
 25 80  1  0  0  0  0
 25 81  1  0  0  0  0
 25 82  1  0  0  0  0
 26 27  1  0  0  0  0
 26 39  1  0  0  0  0
 26 40  1  0  0  0  0
 27 32  1  0  0  0  0
 27 41  1  0  0  0  0
 27 28  1  0  0  0  0
 28 29  1  0  0  0  0
 28 30  1  0  0  0  0
 29 42  1  0  0  0  0
 29 43  1  0  0  0  0
 29 44  1  0  0  0  0
 30 45  1  0  0  0  0
 30 46  1  0  0  0  0
 30 47  1  0  0  0  0
 31 66  1  0  0  0  0
 28 32  1  0  0  0  0
M  END
$$$$
