EPH_relaxed_0001_pdb2pqr_Repair_63_r2_0001_out
  PyMOL3.1          3D                             0

 82 86  0  0  1  0  0  0  0  0999 V2000
   -1.7280    8.5760   -1.8640 C   0  0  0  0  0  0  0  0  0  0  0  0
   -1.2490   10.3100   -0.1260 C   0  0  1  0  0  0  0  0  0  0  0  0
   -0.2240   10.0080    1.0000 C   0  0  0  0  0  0  0  0  0  0  0  0
    1.0490   10.8330    0.6800 C   0  0  0  0  0  0  0  0  0  0  0  0
    0.6040   11.8260   -0.4200 C   0  0  1  0  0  0  0  0  0  0  0  0
   -0.1050   12.9840    0.3500 C   0  0  0  0  0  0  0  0  0  0  0  0
    1.7290   12.3630   -1.3620 C   0  0  2  0  0  0  0  0  0  0  0  0
    2.8300   13.1810   -0.6640 C   0  0  0  0  0  0  0  0  0  0  0  0
    2.5810   14.6510   -0.5880 C   0  0  0  0  0  0  0  0  0  0  0  0
    1.6630   15.3270   -1.3030 C   0  0  0  0  0  0  0  0  0  0  0  0
    0.8230   14.6200   -2.3750 C   0  0  1  0  0  0  0  0  0  0  0  0
   -2.1080    9.1010   -0.4770 C   0  0  2  0  0  0  0  0  0  0  0  0
    0.8040   15.4780   -3.6670 C   0  0  0  0  0  0  0  0  0  0  0  0
    0.3410   16.9090   -3.4130 C   0  0  0  0  0  0  0  0  0  0  0  0
    1.2360   17.5970   -2.3850 C   0  0  2  0  0  0  0  0  0  0  0  0
    1.3400   16.8190   -1.0440 C   0  0  0  0  0  0  0  0  0  0  0  0
   -0.0100   16.9000   -0.2900 C   0  0  0  0  0  0  0  0  0  0  0  0
    2.3810   17.5450   -0.1500 C   0  0  0  0  0  0  0  0  0  0  0  0
    1.1940   13.1010   -2.6560 C   0  0  1  0  0  0  0  0  0  0  0  0
    2.3330   13.0190   -3.7180 C   0  0  0  0  0  0  0  0  0  0  0  0
   -0.0530   12.3750   -3.2860 C   0  0  0  0  0  0  0  0  0  0  0  0
   -3.6020    9.4720   -0.3850 C   0  0  0  0  0  0  0  0  0  0  0  0
   -1.0690   11.7600   -2.3030 C   0  0  0  0  0  0  0  0  0  0  0  0
   -0.3620   10.9030   -1.2490 C   0  0  2  0  0  0  0  0  0  0  0  0
    0.3430    9.7160   -1.9910 C   0  0  0  0  0  0  0  0  0  0  0  0
   -4.5260    8.2640   -0.2090 C   0  0  0  0  0  0  0  0  0  0  0  0
   -5.2250    7.9100   -1.4870 C   0  0  2  0  0  0  0  0  0  0  0  0
   -6.6470    7.3840   -1.5450 C   0  0  0  0  0  0  0  0  0  0  0  0
   -7.4550    7.1820   -0.3010 C   0  0  0  0  0  0  0  0  0  0  0  0
   -7.0760    6.6120   -2.7530 C   0  0  0  0  0  0  0  0  0  0  0  0
    2.5410   17.7630   -2.9480 O   0  0  0  0  0  0  0  0  0  0  0  0
   -6.3310    8.7590   -1.8190 O   0  0  0  0  0  0  0  0  0  0  0  0
   -1.0861    7.6891   -1.7572 H   0  0  0  0  0  0  0  0  0  0  0  0
   -2.6400    8.3042   -2.4157 H   0  0  0  0  0  0  0  0  0  0  0  0
   -1.1849    9.3574   -2.4157 H   0  0  0  0  0  0  0  0  0  0  0  0
   -1.9241    8.2915    0.2447 H   0  0  0  0  0  0  0  0  0  0  0  0
   -3.7408   10.1437    0.4750 H   0  0  0  0  0  0  0  0  0  0  0  0
   -3.8742    9.9490   -1.3381 H   0  0  0  0  0  0  0  0  0  0  0  0
   -3.9272    7.4021    0.1204 H   0  0  0  0  0  0  0  0  0  0  0  0
   -5.2896    8.5224    0.5394 H   0  0  0  0  0  0  0  0  0  0  0  0
   -4.2853    7.5456   -1.9276 H   0  0  0  0  0  0  0  0  0  0  0  0
   -6.8168    7.3415    0.5807 H   0  0  0  0  0  0  0  0  0  0  0  0
   -8.2888    7.8993   -0.2848 H   0  0  0  0  0  0  0  0  0  0  0  0
   -7.8531    6.1567   -0.2848 H   0  0  0  0  0  0  0  0  0  0  0  0
   -7.5878    5.6910   -2.4369 H   0  0  0  0  0  0  0  0  0  0  0  0
   -7.7629    7.2250   -3.3550 H   0  0  0  0  0  0  0  0  0  0  0  0
   -6.1927    6.3525   -3.3550 H   0  0  0  0  0  0  0  0  0  0  0  0
   -2.0397   11.0248    0.1456 H   0  0  0  0  0  0  0  0  0  0  0  0
   -0.6341   10.3076    1.9757 H   0  0  0  0  0  0  0  0  0  0  0  0
    0.0041    8.9330    1.0481 H   0  0  0  0  0  0  0  0  0  0  0  0
    1.3965   11.3730    1.5731 H   0  0  0  0  0  0  0  0  0  0  0  0
    1.8867   10.1984    0.3552 H   0  0  0  0  0  0  0  0  0  0  0  0
   -0.0044   12.8197    1.4330 H   0  0  0  0  0  0  0  0  0  0  0  0
    0.3609   13.9431    0.0798 H   0  0  0  0  0  0  0  0  0  0  0  0
   -1.1711   13.0052    0.0798 H   0  0  0  0  0  0  0  0  0  0  0  0
    2.2146   11.4359   -1.7006 H   0  0  0  0  0  0  0  0  0  0  0  0
    2.9367   12.8008    0.3627 H   0  0  0  0  0  0  0  0  0  0  0  0
    3.7355   13.0570   -1.2761 H   0  0  0  0  0  0  0  0  0  0  0  0
    3.2006   15.2309    0.1119 H   0  0  0  0  0  0  0  0  0  0  0  0
   -0.1941   14.5435   -1.9632 H   0  0  0  0  0  0  0  0  0  0  0  0
    1.8204   15.5057   -4.0867 H   0  0  0  0  0  0  0  0  0  0  0  0
    0.0901   15.0152   -4.3643 H   0  0  0  0  0  0  0  0  0  0  0  0
    0.3779   17.4724   -4.3571 H   0  0  0  0  0  0  0  0  0  0  0  0
   -0.6867   16.8816   -3.0218 H   0  0  0  0  0  0  0  0  0  0  0  0
    0.7790   18.5691   -2.1479 H   0  0  0  0  0  0  0  0  0  0  0  0
    2.5010   18.5070   -3.5720 H   0  0  0  0  0  0  0  0  0  0  0  0
    0.1744   16.8889    0.7944 H   0  0  0  0  0  0  0  0  0  0  0  0
   -0.5279   17.8308   -0.5644 H   0  0  0  0  0  0  0  0  0  0  0  0
   -0.6355   16.0378   -0.5644 H   0  0  0  0  0  0  0  0  0  0  0  0
    2.1370   17.3748    0.9090 H   0  0  0  0  0  0  0  0  0  0  0  0
    3.3856   17.1506   -0.3628 H   0  0  0  0  0  0  0  0  0  0  0  0
    2.3580   18.6240   -0.3628 H   0  0  0  0  0  0  0  0  0  0  0  0
    3.3052   12.9490   -3.2083 H   0  0  0  0  0  0  0  0  0  0  0  0
    2.1841   12.1293   -4.3474 H   0  0  0  0  0  0  0  0  0  0  0  0
    2.3131   13.9209   -4.3474 H   0  0  0  0  0  0  0  0  0  0  0  0
   -0.5900   13.1107   -3.9027 H   0  0  0  0  0  0  0  0  0  0  0  0
    0.3616   11.5218   -3.8429 H   0  0  0  0  0  0  0  0  0  0  0  0
   -1.6179   12.5695   -1.7995 H   0  0  0  0  0  0  0  0  0  0  0  0
   -1.7613   11.1195   -2.8691 H   0  0  0  0  0  0  0  0  0  0  0  0
    0.7586    9.0162   -1.2511 H   0  0  0  0  0  0  0  0  0  0  0  0
   -0.3896    9.1907   -2.6213 H   0  0  0  0  0  0  0  0  0  0  0  0
    1.1548   10.1080   -2.6213 H   0  0  0  0  0  0  0  0  0  0  0  0
  1 12  1  0  0  0  0
  1 33  1  0  0  0  0
  1 34  1  0  0  0  0
  1 35  1  0  0  0  0
  2  3  1  0  0  0  0
  2 48  1  0  0  0  0
  3  4  1  0  0  0  0
  3 49  1  0  0  0  0
  3 50  1  0  0  0  0
  4  5  1  0  0  0  0
  4 51  1  0  0  0  0
  4 52  1  0  0  0  0
  5  6  1  0  0  0  0
  5  7  1  0  0  0  0
  6 53  1  0  0  0  0
  6 54  1  0  0  0  0
  6 55  1  0  0  0  0
  7  8  1  0  0  0  0
  7 56  1  0  0  0  0
  8  9  1  0  0  0  0
  8 57  1  0  0  0  0
  8 58  1  0  0  0  0
  9 10  2  0  0  0  0
  9 59  1  0  0  0  0
 10 11  1  0  0  0  0
 11 13  1  0  0  0  0
 11 19  1  0  0  0  0
 11 60  1  0  0  0  0
  2 12  1  0  0  0  0
 12 22  1  0  0  0  0
 12 36  1  0  0  0  0
 13 14  1  0  0  0  0
 13 61  1  0  0  0  0
 13 62  1  0  0  0  0
 14 15  1  0  0  0  0
 14 63  1  0  0  0  0
 14 64  1  0  0  0  0
 15 16  1  0  0  0  0
 15 31  1  0  0  0  0
 15 65  1  0  0  0  0
 10 16  1  0  0  0  0
 16 17  1  0  0  0  0
 16 18  1  0  0  0  0
 17 67  1  0  0  0  0
 17 68  1  0  0  0  0
 17 69  1  0  0  0  0
 18 70  1  0  0  0  0
 18 71  1  0  0  0  0
 18 72  1  0  0  0  0
  7 19  1  0  0  0  0
 19 20  1  0  0  0  0
 19 21  1  0  0  0  0
 20 73  1  0  0  0  0
 20 74  1  0  0  0  0
 20 75  1  0  0  0  0
 21 23  1  0  0  0  0
 21 76  1  0  0  0  0
 21 77  1  0  0  0  0
 22 26  1  0  0  0  0
 22 37  1  0  0  0  0
 22 38  1  0  0  0  0
 23 24  1  0  0  0  0
 23 78  1  0  0  0  0
 23 79  1  0  0  0  0
  2 24  1  0  0  0  0
  5 24  1  0  0  0  0
 24 25  1  0  0  0  0
 25 80  1  0  0  0  0
 25 81  1  0  0  0  0
 25 82  1  0  0  0  0
 26 27  1  0  0  0  0
 26 39  1  0  0  0  0
 26 40  1  0  0  0  0
 27 32  1  0  0  0  0
 27 41  1  0  0  0  0
 27 28  1  0  0  0  0
 28 29  1  0  0  0  0
 28 30  1  0  0  0  0
 29 42  1  0  0  0  0
 29 43  1  0  0  0  0
 29 44  1  0  0  0  0
 30 45  1  0  0  0  0
 30 46  1  0  0  0  0
 30 47  1  0  0  0  0
 31 66  1  0  0  0  0
 28 32  1  0  0  0  0
M  END
$$$$
