EPH_relaxed_0001_pdb2pqr_Repair_381_r2_0001_out
  PyMOL3.1          3D                             0

 82 86  0  0  1  0  0  0  0  0999 V2000
   -5.4570    6.0190   -4.2980 C   0  0  0  0  0  0  0  0  0  0  0  0
   -6.8780    6.9310   -2.4520 C   0  0  1  0  0  0  0  0  0  0  0  0
   -6.7820    6.0570   -1.1730 C   0  0  0  0  0  0  0  0  0  0  0  0
   -7.7600    6.6690   -0.1380 C   0  0  0  0  0  0  0  0  0  0  0  0
   -8.6220    7.6600   -0.9540 C   0  0  1  0  0  0  0  0  0  0  0  0
   -9.7070    6.7750   -1.6430 C   0  0  0  0  0  0  0  0  0  0  0  0
   -9.2630    8.8410   -0.1540 C   0  0  2  0  0  0  0  0  0  0  0  0
  -10.2620    8.4220    0.9380 C   0  0  0  0  0  0  0  0  0  0  0  0
  -11.6850    8.3200    0.4960 C   0  0  0  0  0  0  0  0  0  0  0  0
  -12.1870    8.8260   -0.6460 C   0  0  0  0  0  0  0  0  0  0  0  0
  -11.3140    9.6690   -1.5850 C   0  0  1  0  0  0  0  0  0  0  0  0
   -5.5430    7.0590   -3.1770 C   0  0  2  0  0  0  0  0  0  0  0  0
  -12.0920   10.9410   -2.0120 C   0  0  0  0  0  0  0  0  0  0  0  0
  -13.4550   10.6170   -2.6160 C   0  0  0  0  0  0  0  0  0  0  0  0
  -14.3150    9.8290   -1.6320 C   0  0  2  0  0  0  0  0  0  0  0  0
  -13.6300    8.5300   -1.1240 C   0  0  0  0  0  0  0  0  0  0  0  0
  -13.5590    7.4950   -2.2740 C   0  0  0  0  0  0  0  0  0  0  0  0
  -14.5410    7.9040   -0.0330 C   0  0  0  0  0  0  0  0  0  0  0  0
   -9.8490    9.9960   -1.0620 C   0  0  1  0  0  0  0  0  0  0  0  0
   -9.8740   11.2840   -0.1830 C   0  0  0  0  0  0  0  0  0  0  0  0
   -8.9230   10.3180   -2.2940 C   0  0  0  0  0  0  0  0  0  0  0  0
   -4.3820    6.9260   -2.1710 C   0  0  0  0  0  0  0  0  0  0  0  0
   -8.2240    9.1220   -2.9680 C   0  0  0  0  0  0  0  0  0  0  0  0
   -7.5300    8.2360   -1.9290 C   0  0  2  0  0  0  0  0  0  0  0  0
   -6.4180    9.0930   -1.2350 C   0  0  0  0  0  0  0  0  0  0  0  0
   -3.1570    7.7710   -2.5300 C   0  0  0  0  0  0  0  0  0  0  0  0
   -2.4480    8.2670   -1.3060 C   0  0  2  0  0  0  0  0  0  0  0  0
   -1.1790    9.0970   -1.3530 C   0  0  0  0  0  0  0  0  0  0  0  0
   -0.5440    9.4790   -2.6540 C   0  0  0  0  0  0  0  0  0  0  0  0
   -0.2940    9.1210   -0.1460 C   0  0  0  0  0  0  0  0  0  0  0  0
  -14.6330   10.6720   -0.5200 O   0  0  0  0  0  0  0  0  0  0  0  0
   -2.4700    9.6900   -1.1360 O   0  0  0  0  0  0  0  0  0  0  0  0
   -5.3739    5.0135   -3.8597 H   0  0  0  0  0  0  0  0  0  0  0  0
   -6.3628    6.0742   -4.9197 H   0  0  0  0  0  0  0  0  0  0  0  0
   -4.5726    6.2223   -4.9197 H   0  0  0  0  0  0  0  0  0  0  0  0
   -5.4650    8.0534   -3.6407 H   0  0  0  0  0  0  0  0  0  0  0  0
   -4.7428    7.2407   -1.1806 H   0  0  0  0  0  0  0  0  0  0  0  0
   -4.0623    5.8736   -2.1863 H   0  0  0  0  0  0  0  0  0  0  0  0
   -2.4612    7.1572   -3.1209 H   0  0  0  0  0  0  0  0  0  0  0  0
   -3.4990    8.6437   -3.1057 H   0  0  0  0  0  0  0  0  0  0  0  0
   -2.7114    7.3524   -0.7546 H   0  0  0  0  0  0  0  0  0  0  0  0
    0.3837   10.0371   -2.4593 H   0  0  0  0  0  0  0  0  0  0  0  0
   -0.3116    8.5707   -3.2293 H   0  0  0  0  0  0  0  0  0  0  0  0
   -1.2376   10.1099   -3.2293 H   0  0  0  0  0  0  0  0  0  0  0  0
   -0.9132    9.1042    0.7630 H   0  0  0  0  0  0  0  0  0  0  0  0
    0.3651    8.2404   -0.1570 H   0  0  0  0  0  0  0  0  0  0  0  0
    0.3164   10.0360   -0.1570 H   0  0  0  0  0  0  0  0  0  0  0  0
   -7.4877    6.5028   -3.2613 H   0  0  0  0  0  0  0  0  0  0  0  0
   -7.0711    5.0203   -1.4002 H   0  0  0  0  0  0  0  0  0  0  0  0
   -5.7537    6.0403   -0.7826 H   0  0  0  0  0  0  0  0  0  0  0  0
   -8.3889    5.8866    0.3119 H   0  0  0  0  0  0  0  0  0  0  0  0
   -7.2335    7.1607    0.6933 H   0  0  0  0  0  0  0  0  0  0  0  0
  -10.3168    6.2776   -0.8744 H   0  0  0  0  0  0  0  0  0  0  0  0
  -10.3522    7.4077   -2.2702 H   0  0  0  0  0  0  0  0  0  0  0  0
   -9.2168    6.0158   -2.2702 H   0  0  0  0  0  0  0  0  0  0  0  0
   -8.3979    9.2627    0.3787 H   0  0  0  0  0  0  0  0  0  0  0  0
   -9.9538    7.4380    1.3211 H   0  0  0  0  0  0  0  0  0  0  0  0
  -10.2354    9.2183    1.6964 H   0  0  0  0  0  0  0  0  0  0  0  0
  -12.3815    7.7865    1.1595 H   0  0  0  0  0  0  0  0  0  0  0  0
  -11.1171    9.0391   -2.4650 H   0  0  0  0  0  0  0  0  0  0  0  0
  -12.2405   11.5773   -1.1271 H   0  0  0  0  0  0  0  0  0  0  0  0
  -11.4978   11.4530   -2.7832 H   0  0  0  0  0  0  0  0  0  0  0  0
  -13.9682   11.5560   -2.8706 H   0  0  0  0  0  0  0  0  0  0  0  0
  -13.3028   10.0049   -3.5172 H   0  0  0  0  0  0  0  0  0  0  0  0
  -15.2244    9.5157   -2.1657 H   0  0  0  0  0  0  0  0  0  0  0  0
  -15.1420   10.1410    0.1150 H   0  0  0  0  0  0  0  0  0  0  0  0
  -13.4895    6.4817   -1.8516 H   0  0  0  0  0  0  0  0  0  0  0  0
  -14.4646    7.5726   -2.8936 H   0  0  0  0  0  0  0  0  0  0  0  0
  -12.6725    7.6956   -2.8936 H   0  0  0  0  0  0  0  0  0  0  0  0
  -14.1556    8.1688    0.9627 H   0  0  0  0  0  0  0  0  0  0  0  0
  -15.5649    8.2901   -0.1445 H   0  0  0  0  0  0  0  0  0  0  0  0
  -14.5476    6.8097   -0.1445 H   0  0  0  0  0  0  0  0  0  0  0  0
   -9.8685   11.0024    0.8803 H   0  0  0  0  0  0  0  0  0  0  0  0
   -8.9876   11.8965   -0.4047 H   0  0  0  0  0  0  0  0  0  0  0  0
  -10.7835   11.8616   -0.4047 H   0  0  0  0  0  0  0  0  0  0  0  0
   -9.5427   10.8139   -3.0556 H   0  0  0  0  0  0  0  0  0  0  0  0
   -8.1088   10.9366   -1.8886 H   0  0  0  0  0  0  0  0  0  0  0  0
   -8.9736    8.5244   -3.5074 H   0  0  0  0  0  0  0  0  0  0  0  0
   -7.4644    9.5066   -3.6645 H   0  0  0  0  0  0  0  0  0  0  0  0
   -6.5217    9.0131   -0.1428 H   0  0  0  0  0  0  0  0  0  0  0  0
   -5.4274    8.7225   -1.5374 H   0  0  0  0  0  0  0  0  0  0  0  0
   -6.5239   10.1453   -1.5374 H   0  0  0  0  0  0  0  0  0  0  0  0
  1 12  1  0  0  0  0
  1 33  1  0  0  0  0
  1 34  1  0  0  0  0
  1 35  1  0  0  0  0
  2  3  1  0  0  0  0
  2 48  1  0  0  0  0
  3  4  1  0  0  0  0
  3 49  1  0  0  0  0
  3 50  1  0  0  0  0
  4  5  1  0  0  0  0
  4 51  1  0  0  0  0
  4 52  1  0  0  0  0
  5  6  1  0  0  0  0
  5  7  1  0  0  0  0
  6 53  1  0  0  0  0
  6 54  1  0  0  0  0
  6 55  1  0  0  0  0
  7  8  1  0  0  0  0
  7 56  1  0  0  0  0
  8  9  1  0  0  0  0
  8 57  1  0  0  0  0
  8 58  1  0  0  0  0
  9 10  2  0  0  0  0
  9 59  1  0  0  0  0
 10 11  1  0  0  0  0
 11 13  1  0  0  0  0
 11 19  1  0  0  0  0
 11 60  1  0  0  0  0
  2 12  1  0  0  0  0
 12 22  1  0  0  0  0
 12 36  1  0  0  0  0
 13 14  1  0  0  0  0
 13 61  1  0  0  0  0
 13 62  1  0  0  0  0
 14 15  1  0  0  0  0
 14 63  1  0  0  0  0
 14 64  1  0  0  0  0
 15 16  1  0  0  0  0
 15 31  1  0  0  0  0
 15 65  1  0  0  0  0
 10 16  1  0  0  0  0
 16 17  1  0  0  0  0
 16 18  1  0  0  0  0
 17 67  1  0  0  0  0
 17 68  1  0  0  0  0
 17 69  1  0  0  0  0
 18 70  1  0  0  0  0
 18 71  1  0  0  0  0
 18 72  1  0  0  0  0
  7 19  1  0  0  0  0
 19 20  1  0  0  0  0
 19 21  1  0  0  0  0
 20 73  1  0  0  0  0
 20 74  1  0  0  0  0
 20 75  1  0  0  0  0
 21 23  1  0  0  0  0
 21 76  1  0  0  0  0
 21 77  1  0  0  0  0
 22 26  1  0  0  0  0
 22 37  1  0  0  0  0
 22 38  1  0  0  0  0
 23 24  1  0  0  0  0
 23 78  1  0  0  0  0
 23 79  1  0  0  0  0
  2 24  1  0  0  0  0
  5 24  1  0  0  0  0
 24 25  1  0  0  0  0
 25 80  1  0  0  0  0
 25 81  1  0  0  0  0
 25 82  1  0  0  0  0
 26 27  1  0  0  0  0
 26 39  1  0  0  0  0
 26 40  1  0  0  0  0
 27 32  1  0  0  0  0
 27 41  1  0  0  0  0
 27 28  1  0  0  0  0
 28 29  1  0  0  0  0
 28 30  1  0  0  0  0
 29 42  1  0  0  0  0
 29 43  1  0  0  0  0
 29 44  1  0  0  0  0
 30 45  1  0  0  0  0
 30 46  1  0  0  0  0
 30 47  1  0  0  0  0
 31 66  1  0  0  0  0
 28 32  1  0  0  0  0
M  END
$$$$
