EPH_relaxed_0001_pdb2pqr_Repair_27_r2_0001_out
  PyMOL3.1          3D                             0

 82 86  0  0  1  0  0  0  0  0999 V2000
   -1.7180    8.5820   -1.8860 C   0  0  0  0  0  0  0  0  0  0  0  0
   -1.2430   10.3190   -0.1500 C   0  0  1  0  0  0  0  0  0  0  0  0
   -0.2150   10.0090    0.9720 C   0  0  0  0  0  0  0  0  0  0  0  0
    1.0590   10.8310    0.6510 C   0  0  0  0  0  0  0  0  0  0  0  0
    0.6130   11.8310   -0.4420 C   0  0  1  0  0  0  0  0  0  0  0  0
   -0.0900   12.9870    0.3340 C   0  0  0  0  0  0  0  0  0  0  0  0
    1.7370   12.3690   -1.3860 C   0  0  2  0  0  0  0  0  0  0  0  0
    2.8420   13.1810   -0.6870 C   0  0  0  0  0  0  0  0  0  0  0  0
    2.5980   14.6510   -0.6030 C   0  0  0  0  0  0  0  0  0  0  0  0
    1.6790   15.3330   -1.3130 C   0  0  0  0  0  0  0  0  0  0  0  0
    0.8340   14.6340   -2.3850 C   0  0  1  0  0  0  0  0  0  0  0  0
   -2.1060    9.1140   -0.5040 C   0  0  2  0  0  0  0  0  0  0  0  0
    0.8140   15.4980   -3.6730 C   0  0  0  0  0  0  0  0  0  0  0  0
    0.3550   16.9290   -3.4110 C   0  0  0  0  0  0  0  0  0  0  0  0
    1.2550   17.6100   -2.3830 C   0  0  2  0  0  0  0  0  0  0  0  0
    1.3610   16.8250   -1.0460 C   0  0  0  0  0  0  0  0  0  0  0  0
    0.0130   16.9060   -0.2870 C   0  0  0  0  0  0  0  0  0  0  0  0
    2.4070   17.5440   -0.1510 C   0  0  0  0  0  0  0  0  0  0  0  0
    1.2000   13.1140   -2.6750 C   0  0  1  0  0  0  0  0  0  0  0  0
    2.3350   13.0350   -3.7410 C   0  0  0  0  0  0  0  0  0  0  0  0
   -0.0510   12.3950   -3.3040 C   0  0  0  0  0  0  0  0  0  0  0  0
   -3.5980    9.4940   -0.4260 C   0  0  0  0  0  0  0  0  0  0  0  0
   -1.0650   11.7790   -2.3210 C   0  0  0  0  0  0  0  0  0  0  0  0
   -0.3570   10.9140   -1.2730 C   0  0  2  0  0  0  0  0  0  0  0  0
    0.3410    9.7290   -2.0230 C   0  0  0  0  0  0  0  0  0  0  0  0
   -4.5300    8.2930   -0.2420 C   0  0  0  0  0  0  0  0  0  0  0  0
   -5.2110    7.9180   -1.5230 C   0  0  2  0  0  0  0  0  0  0  0  0
   -6.6590    7.4740   -1.6030 C   0  0  0  0  0  0  0  0  0  0  0  0
   -7.5160    7.3820   -0.3790 C   0  0  0  0  0  0  0  0  0  0  0  0
   -7.0970    6.6680   -2.7860 C   0  0  0  0  0  0  0  0  0  0  0  0
    2.5590   17.7740   -2.9490 O   0  0  0  0  0  0  0  0  0  0  0  0
   -6.2530    8.8120   -1.9320 O   0  0  0  0  0  0  0  0  0  0  0  0
   -1.0734    7.6981   -1.7709 H   0  0  0  0  0  0  0  0  0  0  0  0
   -2.6266    8.3036   -2.4401 H   0  0  0  0  0  0  0  0  0  0  0  0
   -1.1753    9.3620   -2.4401 H   0  0  0  0  0  0  0  0  0  0  0  0
   -1.9326    8.3061    0.2221 H   0  0  0  0  0  0  0  0  0  0  0  0
   -3.7386   10.1764    0.4252 H   0  0  0  0  0  0  0  0  0  0  0  0
   -3.8615    9.9613   -1.3863 H   0  0  0  0  0  0  0  0  0  0  0  0
   -3.9399    7.4350    0.1124 H   0  0  0  0  0  0  0  0  0  0  0  0
   -5.3038    8.5686    0.4896 H   0  0  0  0  0  0  0  0  0  0  0  0
   -4.2818    7.4778   -1.9140 H   0  0  0  0  0  0  0  0  0  0  0  0
   -6.8828    7.4500    0.5179 H   0  0  0  0  0  0  0  0  0  0  0  0
   -8.2433    8.2072   -0.3778 H   0  0  0  0  0  0  0  0  0  0  0  0
   -8.0516    6.4212   -0.3778 H   0  0  0  0  0  0  0  0  0  0  0  0
   -7.5956    5.7505   -2.4402 H   0  0  0  0  0  0  0  0  0  0  0  0
   -7.7978    7.2595   -3.3935 H   0  0  0  0  0  0  0  0  0  0  0  0
   -6.2195    6.4018   -3.3935 H   0  0  0  0  0  0  0  0  0  0  0  0
   -2.0310   11.0348    0.1271 H   0  0  0  0  0  0  0  0  0  0  0  0
   -0.6209   10.3061    1.9502 H   0  0  0  0  0  0  0  0  0  0  0  0
    0.0098    8.9331    1.0153 H   0  0  0  0  0  0  0  0  0  0  0  0
    1.4121   11.3652    1.5454 H   0  0  0  0  0  0  0  0  0  0  0  0
    1.8932   10.1952    0.3195 H   0  0  0  0  0  0  0  0  0  0  0  0
    0.0128   12.8179    1.4160 H   0  0  0  0  0  0  0  0  0  0  0  0
    0.3781   13.9459    0.0666 H   0  0  0  0  0  0  0  0  0  0  0  0
   -1.1567   13.0125    0.0666 H   0  0  0  0  0  0  0  0  0  0  0  0
    2.2191   11.4424   -1.7310 H   0  0  0  0  0  0  0  0  0  0  0  0
    2.9503   12.7955    0.3375 H   0  0  0  0  0  0  0  0  0  0  0  0
    3.7453   13.0576   -1.3025 H   0  0  0  0  0  0  0  0  0  0  0  0
    3.2213   15.2258    0.0978 H   0  0  0  0  0  0  0  0  0  0  0  0
   -0.1820   14.5587   -1.9701 H   0  0  0  0  0  0  0  0  0  0  0  0
    1.8294   15.5252   -4.0950 H   0  0  0  0  0  0  0  0  0  0  0  0
    0.0974   15.0402   -4.3708 H   0  0  0  0  0  0  0  0  0  0  0  0
    0.3901   17.4966   -4.3526 H   0  0  0  0  0  0  0  0  0  0  0  0
   -0.6715   16.9023   -3.0166 H   0  0  0  0  0  0  0  0  0  0  0  0
    0.8017   18.5825   -2.1405 H   0  0  0  0  0  0  0  0  0  0  0  0
    2.8080   18.7080   -2.8480 H   0  0  0  0  0  0  0  0  0  0  0  0
    0.2012   16.8947    0.7967 H   0  0  0  0  0  0  0  0  0  0  0  0
   -0.5058   17.8369   -0.5594 H   0  0  0  0  0  0  0  0  0  0  0  0
   -0.6135   16.0439   -0.5594 H   0  0  0  0  0  0  0  0  0  0  0  0
    2.1614   17.3752    0.9079 H   0  0  0  0  0  0  0  0  0  0  0  0
    3.4090   17.1429   -0.3635 H   0  0  0  0  0  0  0  0  0  0  0  0
    2.3914   18.6232   -0.3635 H   0  0  0  0  0  0  0  0  0  0  0  0
    3.3093   12.9672   -3.2349 H   0  0  0  0  0  0  0  0  0  0  0  0
    2.1859   12.1451   -4.3701 H   0  0  0  0  0  0  0  0  0  0  0  0
    2.3106   13.9370   -4.3701 H   0  0  0  0  0  0  0  0  0  0  0  0
   -0.5878   13.1353   -3.9155 H   0  0  0  0  0  0  0  0  0  0  0  0
    0.3590   11.5431   -3.8662 H   0  0  0  0  0  0  0  0  0  0  0  0
   -1.6094   12.5879   -1.8117 H   0  0  0  0  0  0  0  0  0  0  0  0
   -1.7614   11.1435   -2.8878 H   0  0  0  0  0  0  0  0  0  0  0  0
    0.7564    9.0238   -1.2880 H   0  0  0  0  0  0  0  0  0  0  0  0
   -0.3955    9.2097   -2.6538 H   0  0  0  0  0  0  0  0  0  0  0  0
    1.1523   10.1214   -2.6538 H   0  0  0  0  0  0  0  0  0  0  0  0
  1 12  1  0  0  0  0
  1 33  1  0  0  0  0
  1 34  1  0  0  0  0
  1 35  1  0  0  0  0
  2  3  1  0  0  0  0
  2 48  1  0  0  0  0
  3  4  1  0  0  0  0
  3 49  1  0  0  0  0
  3 50  1  0  0  0  0
  4  5  1  0  0  0  0
  4 51  1  0  0  0  0
  4 52  1  0  0  0  0
  5  6  1  0  0  0  0
  5  7  1  0  0  0  0
  6 53  1  0  0  0  0
  6 54  1  0  0  0  0
  6 55  1  0  0  0  0
  7  8  1  0  0  0  0
  7 56  1  0  0  0  0
  8  9  1  0  0  0  0
  8 57  1  0  0  0  0
  8 58  1  0  0  0  0
  9 10  2  0  0  0  0
  9 59  1  0  0  0  0
 10 11  1  0  0  0  0
 11 13  1  0  0  0  0
 11 19  1  0  0  0  0
 11 60  1  0  0  0  0
  2 12  1  0  0  0  0
 12 22  1  0  0  0  0
 12 36  1  0  0  0  0
 13 14  1  0  0  0  0
 13 61  1  0  0  0  0
 13 62  1  0  0  0  0
 14 15  1  0  0  0  0
 14 63  1  0  0  0  0
 14 64  1  0  0  0  0
 15 16  1  0  0  0  0
 15 31  1  0  0  0  0
 15 65  1  0  0  0  0
 10 16  1  0  0  0  0
 16 17  1  0  0  0  0
 16 18  1  0  0  0  0
 17 67  1  0  0  0  0
 17 68  1  0  0  0  0
 17 69  1  0  0  0  0
 18 70  1  0  0  0  0
 18 71  1  0  0  0  0
 18 72  1  0  0  0  0
  7 19  1  0  0  0  0
 19 20  1  0  0  0  0
 19 21  1  0  0  0  0
 20 73  1  0  0  0  0
 20 74  1  0  0  0  0
 20 75  1  0  0  0  0
 21 23  1  0  0  0  0
 21 76  1  0  0  0  0
 21 77  1  0  0  0  0
 22 26  1  0  0  0  0
 22 37  1  0  0  0  0
 22 38  1  0  0  0  0
 23 24  1  0  0  0  0
 23 78  1  0  0  0  0
 23 79  1  0  0  0  0
  2 24  1  0  0  0  0
  5 24  1  0  0  0  0
 24 25  1  0  0  0  0
 25 80  1  0  0  0  0
 25 81  1  0  0  0  0
 25 82  1  0  0  0  0
 26 27  1  0  0  0  0
 26 39  1  0  0  0  0
 26 40  1  0  0  0  0
 27 32  1  0  0  0  0
 27 41  1  0  0  0  0
 27 28  1  0  0  0  0
 28 29  1  0  0  0  0
 28 30  1  0  0  0  0
 29 42  1  0  0  0  0
 29 43  1  0  0  0  0
 29 44  1  0  0  0  0
 30 45  1  0  0  0  0
 30 46  1  0  0  0  0
 30 47  1  0  0  0  0
 31 66  1  0  0  0  0
 28 32  1  0  0  0  0
M  END
$$$$
