EPH_relaxed_0001_pdb2pqr_Repair_399_r2_0001_out
  PyMOL3.1          3D                             0

 82 86  0  0  1  0  0  0  0  0999 V2000
   -1.7190    8.5860   -1.8710 C   0  0  0  0  0  0  0  0  0  0  0  0
   -1.2460   10.3150   -0.1260 C   0  0  1  0  0  0  0  0  0  0  0  0
   -0.2260   10.0140    1.0050 C   0  0  0  0  0  0  0  0  0  0  0  0
    1.0470   10.8420    0.6910 C   0  0  0  0  0  0  0  0  0  0  0  0
    0.6050   11.8340   -0.4100 C   0  0  1  0  0  0  0  0  0  0  0  0
   -0.1100   12.9910    0.3560 C   0  0  0  0  0  0  0  0  0  0  0  0
    1.7340   12.3740   -1.3470 C   0  0  2  0  0  0  0  0  0  0  0  0
    2.8300   13.1940   -0.6440 C   0  0  0  0  0  0  0  0  0  0  0  0
    2.5770   14.6630   -0.5680 C   0  0  0  0  0  0  0  0  0  0  0  0
    1.6610   15.3380   -1.2880 C   0  0  0  0  0  0  0  0  0  0  0  0
    0.8280   14.6300   -2.3640 C   0  0  1  0  0  0  0  0  0  0  0  0
   -2.1010    9.1040   -0.4820 C   0  0  2  0  0  0  0  0  0  0  0  0
    0.8140   15.4880   -3.6560 C   0  0  0  0  0  0  0  0  0  0  0  0
    0.3470   16.9180   -3.4030 C   0  0  0  0  0  0  0  0  0  0  0  0
    1.2350   17.6080   -2.3710 C   0  0  2  0  0  0  0  0  0  0  0  0
    1.3340   16.8290   -1.0290 C   0  0  0  0  0  0  0  0  0  0  0  0
   -0.0200   16.9070   -0.2820 C   0  0  0  0  0  0  0  0  0  0  0  0
    2.3690   17.5570   -0.1300 C   0  0  0  0  0  0  0  0  0  0  0  0
    1.2040   13.1110   -2.6440 C   0  0  1  0  0  0  0  0  0  0  0  0
    2.3480   13.0320   -3.7000 C   0  0  0  0  0  0  0  0  0  0  0  0
   -0.0390   12.3830   -3.2790 C   0  0  0  0  0  0  0  0  0  0  0  0
   -3.5960    9.4700   -0.3890 C   0  0  0  0  0  0  0  0  0  0  0  0
   -1.0580   11.7660   -2.3020 C   0  0  0  0  0  0  0  0  0  0  0  0
   -0.3550   10.9100   -1.2450 C   0  0  2  0  0  0  0  0  0  0  0  0
    0.3560    9.7250   -1.9840 C   0  0  0  0  0  0  0  0  0  0  0  0
   -4.5170    8.2570   -0.2250 C   0  0  0  0  0  0  0  0  0  0  0  0
   -5.2210    7.9190   -1.5040 C   0  0  2  0  0  0  0  0  0  0  0  0
   -6.6330    7.3650   -1.5610 C   0  0  0  0  0  0  0  0  0  0  0  0
   -7.4240    7.1180   -0.3150 C   0  0  0  0  0  0  0  0  0  0  0  0
   -7.0570    6.6120   -2.7830 C   0  0  0  0  0  0  0  0  0  0  0  0
    2.5430   17.7760   -2.9270 O   0  0  0  0  0  0  0  0  0  0  0  0
   -6.3480    8.7520   -1.8060 O   0  0  0  0  0  0  0  0  0  0  0  0
   -1.0690    7.7046   -1.7677 H   0  0  0  0  0  0  0  0  0  0  0  0
   -2.6296    8.3075   -2.4217 H   0  0  0  0  0  0  0  0  0  0  0  0
   -1.1839    9.3737   -2.4217 H   0  0  0  0  0  0  0  0  0  0  0  0
   -1.9146    8.2921    0.2364 H   0  0  0  0  0  0  0  0  0  0  0  0
   -3.7380   10.1336    0.4767 H   0  0  0  0  0  0  0  0  0  0  0  0
   -3.8683    9.9548   -1.3381 H   0  0  0  0  0  0  0  0  0  0  0  0
   -3.9147    7.3920    0.0898 H   0  0  0  0  0  0  0  0  0  0  0  0
   -5.2776    8.5035    0.5304 H   0  0  0  0  0  0  0  0  0  0  0  0
   -4.2782    7.5850   -1.9618 H   0  0  0  0  0  0  0  0  0  0  0  0
   -6.7935    7.3149    0.5646 H   0  0  0  0  0  0  0  0  0  0  0  0
   -8.2977    7.7861   -0.2968 H   0  0  0  0  0  0  0  0  0  0  0  0
   -7.7623    6.0715   -0.2968 H   0  0  0  0  0  0  0  0  0  0  0  0
   -7.5763    5.6897   -2.4836 H   0  0  0  0  0  0  0  0  0  0  0  0
   -7.7358    7.2371   -3.3818 H   0  0  0  0  0  0  0  0  0  0  0  0
   -6.1705    6.3558   -3.3818 H   0  0  0  0  0  0  0  0  0  0  0  0
   -2.0389   11.0286    0.1425 H   0  0  0  0  0  0  0  0  0  0  0  0
   -0.6413   10.3123    1.9789 H   0  0  0  0  0  0  0  0  0  0  0  0
    0.0038    8.9394    1.0541 H   0  0  0  0  0  0  0  0  0  0  0  0
    1.3894   11.3823    1.5859 H   0  0  0  0  0  0  0  0  0  0  0  0
    1.8875   10.2094    0.3697 H   0  0  0  0  0  0  0  0  0  0  0  0
   -0.0104   12.8298    1.4396 H   0  0  0  0  0  0  0  0  0  0  0  0
    0.3523   13.9514    0.0841 H   0  0  0  0  0  0  0  0  0  0  0  0
   -1.1757   13.0071    0.0841 H   0  0  0  0  0  0  0  0  0  0  0  0
    2.2229   11.4477   -1.6831 H   0  0  0  0  0  0  0  0  0  0  0  0
    2.9335   12.8133    0.3828 H   0  0  0  0  0  0  0  0  0  0  0  0
    3.7384   13.0726   -1.2524 H   0  0  0  0  0  0  0  0  0  0  0  0
    3.1911   15.2436    0.1361 H   0  0  0  0  0  0  0  0  0  0  0  0
   -0.1910   14.5517   -1.9571 H   0  0  0  0  0  0  0  0  0  0  0  0
    1.8324   15.5177   -4.0707 H   0  0  0  0  0  0  0  0  0  0  0  0
    0.1049   15.0241   -4.3574 H   0  0  0  0  0  0  0  0  0  0  0  0
    0.3869   17.4819   -4.3466 H   0  0  0  0  0  0  0  0  0  0  0  0
   -0.6822   16.8876   -3.0160 H   0  0  0  0  0  0  0  0  0  0  0  0
    0.7749   18.5793   -2.1368 H   0  0  0  0  0  0  0  0  0  0  0  0
    3.1110   18.1530   -2.2340 H   0  0  0  0  0  0  0  0  0  0  0  0
    0.1589   16.8967    0.8033 H   0  0  0  0  0  0  0  0  0  0  0  0
   -0.5387   17.8365   -0.5593 H   0  0  0  0  0  0  0  0  0  0  0  0
   -0.6421   16.0432   -0.5593 H   0  0  0  0  0  0  0  0  0  0  0  0
    2.1222   17.3834    0.9278 H   0  0  0  0  0  0  0  0  0  0  0  0
    3.3759   17.1671   -0.3404 H   0  0  0  0  0  0  0  0  0  0  0  0
    2.3424   18.6364   -0.3404 H   0  0  0  0  0  0  0  0  0  0  0  0
    3.3179   12.9650   -3.1855 H   0  0  0  0  0  0  0  0  0  0  0  0
    2.2048   12.1416   -4.3298 H   0  0  0  0  0  0  0  0  0  0  0  0
    2.3285   13.9336   -4.3298 H   0  0  0  0  0  0  0  0  0  0  0  0
   -0.5746   13.1180   -3.8978 H   0  0  0  0  0  0  0  0  0  0  0  0
    0.3798   11.5304   -3.8336 H   0  0  0  0  0  0  0  0  0  0  0  0
   -1.6110   12.5742   -1.8009 H   0  0  0  0  0  0  0  0  0  0  0  0
   -1.7461   11.1244   -2.8719 H   0  0  0  0  0  0  0  0  0  0  0  0
    0.7740    9.0284   -1.2424 H   0  0  0  0  0  0  0  0  0  0  0  0
   -0.3736    9.1953   -2.6142 H   0  0  0  0  0  0  0  0  0  0  0  0
    1.1667   10.1195   -2.6142 H   0  0  0  0  0  0  0  0  0  0  0  0
  1 12  1  0  0  0  0
  1 33  1  0  0  0  0
  1 34  1  0  0  0  0
  1 35  1  0  0  0  0
  2  3  1  0  0  0  0
  2 48  1  0  0  0  0
  3  4  1  0  0  0  0
  3 49  1  0  0  0  0
  3 50  1  0  0  0  0
  4  5  1  0  0  0  0
  4 51  1  0  0  0  0
  4 52  1  0  0  0  0
  5  6  1  0  0  0  0
  5  7  1  0  0  0  0
  6 53  1  0  0  0  0
  6 54  1  0  0  0  0
  6 55  1  0  0  0  0
  7  8  1  0  0  0  0
  7 56  1  0  0  0  0
  8  9  1  0  0  0  0
  8 57  1  0  0  0  0
  8 58  1  0  0  0  0
  9 10  2  0  0  0  0
  9 59  1  0  0  0  0
 10 11  1  0  0  0  0
 11 13  1  0  0  0  0
 11 19  1  0  0  0  0
 11 60  1  0  0  0  0
  2 12  1  0  0  0  0
 12 22  1  0  0  0  0
 12 36  1  0  0  0  0
 13 14  1  0  0  0  0
 13 61  1  0  0  0  0
 13 62  1  0  0  0  0
 14 15  1  0  0  0  0
 14 63  1  0  0  0  0
 14 64  1  0  0  0  0
 15 16  1  0  0  0  0
 15 31  1  0  0  0  0
 15 65  1  0  0  0  0
 10 16  1  0  0  0  0
 16 17  1  0  0  0  0
 16 18  1  0  0  0  0
 17 67  1  0  0  0  0
 17 68  1  0  0  0  0
 17 69  1  0  0  0  0
 18 70  1  0  0  0  0
 18 71  1  0  0  0  0
 18 72  1  0  0  0  0
  7 19  1  0  0  0  0
 19 20  1  0  0  0  0
 19 21  1  0  0  0  0
 20 73  1  0  0  0  0
 20 74  1  0  0  0  0
 20 75  1  0  0  0  0
 21 23  1  0  0  0  0
 21 76  1  0  0  0  0
 21 77  1  0  0  0  0
 22 26  1  0  0  0  0
 22 37  1  0  0  0  0
 22 38  1  0  0  0  0
 23 24  1  0  0  0  0
 23 78  1  0  0  0  0
 23 79  1  0  0  0  0
  2 24  1  0  0  0  0
  5 24  1  0  0  0  0
 24 25  1  0  0  0  0
 25 80  1  0  0  0  0
 25 81  1  0  0  0  0
 25 82  1  0  0  0  0
 26 27  1  0  0  0  0
 26 39  1  0  0  0  0
 26 40  1  0  0  0  0
 27 32  1  0  0  0  0
 27 41  1  0  0  0  0
 27 28  1  0  0  0  0
 28 29  1  0  0  0  0
 28 30  1  0  0  0  0
 29 42  1  0  0  0  0
 29 43  1  0  0  0  0
 29 44  1  0  0  0  0
 30 45  1  0  0  0  0
 30 46  1  0  0  0  0
 30 47  1  0  0  0  0
 31 66  1  0  0  0  0
 28 32  1  0  0  0  0
M  END
$$$$
