EPH_relaxed_0001_pdb2pqr_Repair_414_r2_0001_out
  PyMOL3.1          3D                             0

 82 86  0  0  1  0  0  0  0  0999 V2000
   -1.6520    8.5820   -1.8550 C   0  0  0  0  0  0  0  0  0  0  0  0
   -1.1480   10.3120   -0.1190 C   0  0  1  0  0  0  0  0  0  0  0  0
   -0.0920   10.0020    0.9750 C   0  0  0  0  0  0  0  0  0  0  0  0
    1.1690   10.8360    0.6290 C   0  0  0  0  0  0  0  0  0  0  0  0
    0.6900   11.8390   -0.4460 C   0  0  1  0  0  0  0  0  0  0  0  0
   -0.0020   12.9860    0.3550 C   0  0  0  0  0  0  0  0  0  0  0  0
    1.7880   12.3910   -1.4130 C   0  0  2  0  0  0  0  0  0  0  0  0
    2.9040   13.2060   -0.7360 C   0  0  0  0  0  0  0  0  0  0  0  0
    2.6510   14.6740   -0.6360 C   0  0  0  0  0  0  0  0  0  0  0  0
    1.7120   15.3540   -1.3190 C   0  0  0  0  0  0  0  0  0  0  0  0
    0.8460   14.6550   -2.3760 C   0  0  1  0  0  0  0  0  0  0  0  0
   -2.0110    9.1040   -0.4610 C   0  0  2  0  0  0  0  0  0  0  0  0
    0.7890   15.5270   -3.6570 C   0  0  0  0  0  0  0  0  0  0  0  0
    0.3270   16.9540   -3.3750 C   0  0  0  0  0  0  0  0  0  0  0  0
    1.2470   17.6340   -2.3640 C   0  0  2  0  0  0  0  0  0  0  0  0
    1.3900   16.8420   -1.0350 C   0  0  0  0  0  0  0  0  0  0  0  0
    0.0600   16.9080   -0.2430 C   0  0  0  0  0  0  0  0  0  0  0  0
    2.4520   17.5620   -0.1610 C   0  0  0  0  0  0  0  0  0  0  0  0
    1.2150   13.1410   -2.6840 C   0  0  1  0  0  0  0  0  0  0  0  0
    2.3250   13.0750   -3.7770 C   0  0  0  0  0  0  0  0  0  0  0  0
   -0.0460   12.4170   -3.2870 C   0  0  0  0  0  0  0  0  0  0  0  0
   -3.5040    9.4730   -0.3460 C   0  0  0  0  0  0  0  0  0  0  0  0
   -1.0320   11.7870   -2.2850 C   0  0  0  0  0  0  0  0  0  0  0  0
   -0.2930   10.9210   -1.2600 C   0  0  2  0  0  0  0  0  0  0  0  0
    0.3950    9.7460   -2.0340 C   0  0  0  0  0  0  0  0  0  0  0  0
   -4.4320    8.2600   -0.2440 C   0  0  0  0  0  0  0  0  0  0  0  0
   -5.1160    7.9750   -1.5470 C   0  0  2  0  0  0  0  0  0  0  0  0
   -6.4670    7.2900   -1.6500 C   0  0  0  0  0  0  0  0  0  0  0  0
   -7.2130    6.8480   -0.4300 C   0  0  0  0  0  0  0  0  0  0  0  0
   -6.8310    6.6170   -2.9360 C   0  0  0  0  0  0  0  0  0  0  0  0
    2.5360   17.8110   -2.9600 O   0  0  0  0  0  0  0  0  0  0  0  0
   -6.3240    8.7150   -1.7630 O   0  0  0  0  0  0  0  0  0  0  0  0
   -1.0310    7.6791   -1.7597 H   0  0  0  0  0  0  0  0  0  0  0  0
   -2.5736    8.3370   -2.4034 H   0  0  0  0  0  0  0  0  0  0  0  0
   -1.0935    9.3549   -2.4034 H   0  0  0  0  0  0  0  0  0  0  0  0
   -1.8149    8.2932    0.2560 H   0  0  0  0  0  0  0  0  0  0  0  0
   -3.6406   10.0912    0.5535 H   0  0  0  0  0  0  0  0  0  0  0  0
   -3.7747   10.0079   -1.2683 H   0  0  0  0  0  0  0  0  0  0  0  0
   -3.8388    7.3806    0.0472 H   0  0  0  0  0  0  0  0  0  0  0  0
   -5.2040    8.4808    0.5078 H   0  0  0  0  0  0  0  0  0  0  0  0
   -4.1512    7.7820   -2.0388 H   0  0  0  0  0  0  0  0  0  0  0  0
   -6.6685    7.1706    0.4697 H   0  0  0  0  0  0  0  0  0  0  0  0
   -8.2172    7.2970   -0.4315 H   0  0  0  0  0  0  0  0  0  0  0  0
   -7.3016    5.7516   -0.4315 H   0  0  0  0  0  0  0  0  0  0  0  0
   -7.3442    5.6681   -2.7208 H   0  0  0  0  0  0  0  0  0  0  0  0
   -7.4982    7.2713   -3.5163 H   0  0  0  0  0  0  0  0  0  0  0  0
   -5.9182    6.4168   -3.5163 H   0  0  0  0  0  0  0  0  0  0  0  0
   -1.9337   11.0203    0.1826 H   0  0  0  0  0  0  0  0  0  0  0  0
   -0.4764   10.2894    1.9648 H   0  0  0  0  0  0  0  0  0  0  0  0
    0.1413    8.9275    1.0054 H   0  0  0  0  0  0  0  0  0  0  0  0
    1.5394   11.3672    1.5182 H   0  0  0  0  0  0  0  0  0  0  0  0
    1.9997   10.2086    0.2737 H   0  0  0  0  0  0  0  0  0  0  0  0
    0.1104   12.7997    1.4333 H   0  0  0  0  0  0  0  0  0  0  0  0
    0.4670   13.9473    0.0981 H   0  0  0  0  0  0  0  0  0  0  0  0
   -1.0711   13.0194    0.0981 H   0  0  0  0  0  0  0  0  0  0  0  0
    2.2680   11.4698   -1.7749 H   0  0  0  0  0  0  0  0  0  0  0  0
    3.0404   12.8145    0.2829 H   0  0  0  0  0  0  0  0  0  0  0  0
    3.7929   13.0933   -1.3741 H   0  0  0  0  0  0  0  0  0  0  0  0
    3.2860   15.2484    0.0545 H   0  0  0  0  0  0  0  0  0  0  0  0
   -0.1592   14.5695   -1.9376 H   0  0  0  0  0  0  0  0  0  0  0  0
    1.7937   15.5636   -4.1034 H   0  0  0  0  0  0  0  0  0  0  0  0
    0.0584   15.0689   -4.3399 H   0  0  0  0  0  0  0  0  0  0  0  0
    0.3363   17.5278   -4.3134 H   0  0  0  0  0  0  0  0  0  0  0  0
   -0.6898   16.9184   -2.9569 H   0  0  0  0  0  0  0  0  0  0  0  0
    0.7930   18.6016   -2.1042 H   0  0  0  0  0  0  0  0  0  0  0  0
    2.7760   16.9760   -3.3950 H   0  0  0  0  0  0  0  0  0  0  0  0
    0.2747   16.8973    0.8358 H   0  0  0  0  0  0  0  0  0  0  0  0
   -0.4750   17.8338   -0.5012 H   0  0  0  0  0  0  0  0  0  0  0  0
   -0.5640   16.0397   -0.5012 H   0  0  0  0  0  0  0  0  0  0  0  0
    2.2196   17.4044    0.9025 H   0  0  0  0  0  0  0  0  0  0  0  0
    3.4485   17.1525   -0.3831 H   0  0  0  0  0  0  0  0  0  0  0  0
    2.4405   18.6393   -0.3831 H   0  0  0  0  0  0  0  0  0  0  0  0
    3.3117   13.0163   -3.2944 H   0  0  0  0  0  0  0  0  0  0  0  0
    2.1699   12.1845   -4.4038 H   0  0  0  0  0  0  0  0  0  0  0  0
    2.2765   13.9776   -4.4038 H   0  0  0  0  0  0  0  0  0  0  0  0
   -0.6025   13.1574   -3.8803 H   0  0  0  0  0  0  0  0  0  0  0  0
    0.3567   11.5715   -3.8640 H   0  0  0  0  0  0  0  0  0  0  0  0
   -1.5705   12.5883   -1.7577 H   0  0  0  0  0  0  0  0  0  0  0  0
   -1.7368   11.1500   -2.8395 H   0  0  0  0  0  0  0  0  0  0  0  0
    0.8150    9.0287   -1.3136 H   0  0  0  0  0  0  0  0  0  0  0  0
   -0.3485    9.2382   -2.6660 H   0  0  0  0  0  0  0  0  0  0  0  0
    1.2016   10.1459   -2.6660 H   0  0  0  0  0  0  0  0  0  0  0  0
  1 12  1  0  0  0  0
  1 33  1  0  0  0  0
  1 34  1  0  0  0  0
  1 35  1  0  0  0  0
  2  3  1  0  0  0  0
  2 48  1  0  0  0  0
  3  4  1  0  0  0  0
  3 49  1  0  0  0  0
  3 50  1  0  0  0  0
  4  5  1  0  0  0  0
  4 51  1  0  0  0  0
  4 52  1  0  0  0  0
  5  6  1  0  0  0  0
  5  7  1  0  0  0  0
  6 53  1  0  0  0  0
  6 54  1  0  0  0  0
  6 55  1  0  0  0  0
  7  8  1  0  0  0  0
  7 56  1  0  0  0  0
  8  9  1  0  0  0  0
  8 57  1  0  0  0  0
  8 58  1  0  0  0  0
  9 10  2  0  0  0  0
  9 59  1  0  0  0  0
 10 11  1  0  0  0  0
 11 13  1  0  0  0  0
 11 19  1  0  0  0  0
 11 60  1  0  0  0  0
  2 12  1  0  0  0  0
 12 22  1  0  0  0  0
 12 36  1  0  0  0  0
 13 14  1  0  0  0  0
 13 61  1  0  0  0  0
 13 62  1  0  0  0  0
 14 15  1  0  0  0  0
 14 63  1  0  0  0  0
 14 64  1  0  0  0  0
 15 16  1  0  0  0  0
 15 31  1  0  0  0  0
 15 65  1  0  0  0  0
 10 16  1  0  0  0  0
 16 17  1  0  0  0  0
 16 18  1  0  0  0  0
 17 67  1  0  0  0  0
 17 68  1  0  0  0  0
 17 69  1  0  0  0  0
 18 70  1  0  0  0  0
 18 71  1  0  0  0  0
 18 72  1  0  0  0  0
  7 19  1  0  0  0  0
 19 20  1  0  0  0  0
 19 21  1  0  0  0  0
 20 73  1  0  0  0  0
 20 74  1  0  0  0  0
 20 75  1  0  0  0  0
 21 23  1  0  0  0  0
 21 76  1  0  0  0  0
 21 77  1  0  0  0  0
 22 26  1  0  0  0  0
 22 37  1  0  0  0  0
 22 38  1  0  0  0  0
 23 24  1  0  0  0  0
 23 78  1  0  0  0  0
 23 79  1  0  0  0  0
  2 24  1  0  0  0  0
  5 24  1  0  0  0  0
 24 25  1  0  0  0  0
 25 80  1  0  0  0  0
 25 81  1  0  0  0  0
 25 82  1  0  0  0  0
 26 27  1  0  0  0  0
 26 39  1  0  0  0  0
 26 40  1  0  0  0  0
 27 32  1  0  0  0  0
 27 41  1  0  0  0  0
 27 28  1  0  0  0  0
 28 29  1  0  0  0  0
 28 30  1  0  0  0  0
 29 42  1  0  0  0  0
 29 43  1  0  0  0  0
 29 44  1  0  0  0  0
 30 45  1  0  0  0  0
 30 46  1  0  0  0  0
 30 47  1  0  0  0  0
 31 66  1  0  0  0  0
 28 32  1  0  0  0  0
M  END
$$$$
