EPH_relaxed_0001_pdb2pqr_Repair_40_r2_0001_out
  PyMOL3.1          3D                             0

 82 86  0  0  1  0  0  0  0  0999 V2000
   -1.7040    8.5800   -1.8510 C   0  0  0  0  0  0  0  0  0  0  0  0
   -1.2370   10.3240   -0.1190 C   0  0  1  0  0  0  0  0  0  0  0  0
   -0.2100   10.0220    1.0050 C   0  0  0  0  0  0  0  0  0  0  0  0
    1.0610   10.8480    0.6840 C   0  0  0  0  0  0  0  0  0  0  0  0
    0.6130   11.8420   -0.4140 C   0  0  1  0  0  0  0  0  0  0  0  0
   -0.0960   12.9990    0.3580 C   0  0  0  0  0  0  0  0  0  0  0  0
    1.7370   12.3820   -1.3580 C   0  0  2  0  0  0  0  0  0  0  0  0
    2.8370   13.2000   -0.6600 C   0  0  0  0  0  0  0  0  0  0  0  0
    2.5860   14.6700   -0.5820 C   0  0  0  0  0  0  0  0  0  0  0  0
    1.6670   15.3450   -1.2950 C   0  0  0  0  0  0  0  0  0  0  0  0
    0.8260   14.6390   -2.3660 C   0  0  1  0  0  0  0  0  0  0  0  0
   -2.0950    9.1140   -0.4700 C   0  0  2  0  0  0  0  0  0  0  0  0
    0.8040   15.4980   -3.6580 C   0  0  0  0  0  0  0  0  0  0  0  0
    0.3400   16.9280   -3.4010 C   0  0  0  0  0  0  0  0  0  0  0  0
    1.2350   17.6160   -2.3740 C   0  0  2  0  0  0  0  0  0  0  0  0
    1.3420   16.8370   -1.0340 C   0  0  0  0  0  0  0  0  0  0  0  0
   -0.0070   16.9150   -0.2780 C   0  0  0  0  0  0  0  0  0  0  0  0
    2.3830   17.5630   -0.1410 C   0  0  0  0  0  0  0  0  0  0  0  0
    1.1990   13.1200   -2.6500 C   0  0  1  0  0  0  0  0  0  0  0  0
    2.3360   13.0410   -3.7140 C   0  0  0  0  0  0  0  0  0  0  0  0
   -0.0490   12.3930   -3.2780 C   0  0  0  0  0  0  0  0  0  0  0  0
   -3.5890    9.4880   -0.3940 C   0  0  0  0  0  0  0  0  0  0  0  0
   -1.0620   11.7760   -2.2950 C   0  0  0  0  0  0  0  0  0  0  0  0
   -0.3520   10.9190   -1.2430 C   0  0  2  0  0  0  0  0  0  0  0  0
    0.3520    9.7340   -1.9870 C   0  0  0  0  0  0  0  0  0  0  0  0
   -4.5170    8.2830   -0.2130 C   0  0  0  0  0  0  0  0  0  0  0  0
   -5.1940    7.9070   -1.4960 C   0  0  2  0  0  0  0  0  0  0  0  0
   -6.5840    7.3040   -1.5630 C   0  0  0  0  0  0  0  0  0  0  0  0
   -7.3810    7.0420   -0.3240 C   0  0  0  0  0  0  0  0  0  0  0  0
   -6.9680    6.5240   -2.7820 C   0  0  0  0  0  0  0  0  0  0  0  0
    2.5390   17.7840   -2.9390 O   0  0  0  0  0  0  0  0  0  0  0  0
   -6.3450    8.6970   -1.8200 O   0  0  0  0  0  0  0  0  0  0  0  0
   -1.0579    7.6976   -1.7334 H   0  0  0  0  0  0  0  0  0  0  0  0
   -2.6113    8.2988   -2.4058 H   0  0  0  0  0  0  0  0  0  0  0  0
   -1.1620    9.3600   -2.4058 H   0  0  0  0  0  0  0  0  0  0  0  0
   -1.9186    8.3089    0.2585 H   0  0  0  0  0  0  0  0  0  0  0  0
   -3.7337   10.1688    0.4578 H   0  0  0  0  0  0  0  0  0  0  0  0
   -3.8526    9.9553   -1.3543 H   0  0  0  0  0  0  0  0  0  0  0  0
   -3.9244    7.4268    0.1416 H   0  0  0  0  0  0  0  0  0  0  0  0
   -5.2933    8.5547    0.5174 H   0  0  0  0  0  0  0  0  0  0  0  0
   -4.2349    7.6010   -1.9392 H   0  0  0  0  0  0  0  0  0  0  0  0
   -6.7605    7.2460    0.5611 H   0  0  0  0  0  0  0  0  0  0  0  0
   -8.2647    7.6969   -0.3111 H   0  0  0  0  0  0  0  0  0  0  0  0
   -7.7037    5.9905   -0.3111 H   0  0  0  0  0  0  0  0  0  0  0  0
   -7.4350    5.5755   -2.4783 H   0  0  0  0  0  0  0  0  0  0  0  0
   -7.6814    7.1084   -3.3816 H   0  0  0  0  0  0  0  0  0  0  0  0
   -6.0698    6.3151   -3.3816 H   0  0  0  0  0  0  0  0  0  0  0  0
   -2.0281   11.0377    0.1545 H   0  0  0  0  0  0  0  0  0  0  0  0
   -0.6188   10.3203    1.9816 H   0  0  0  0  0  0  0  0  0  0  0  0
    0.0192    8.9472    1.0518 H   0  0  0  0  0  0  0  0  0  0  0  0
    1.4097   11.3871    1.5772 H   0  0  0  0  0  0  0  0  0  0  0  0
    1.8988   10.2146    0.3569 H   0  0  0  0  0  0  0  0  0  0  0  0
    0.0054   12.8335    1.4407 H   0  0  0  0  0  0  0  0  0  0  0  0
    0.3693   13.9586    0.0886 H   0  0  0  0  0  0  0  0  0  0  0  0
   -1.1623   13.0201    0.0886 H   0  0  0  0  0  0  0  0  0  0  0  0
    2.2240   11.4566   -1.6992 H   0  0  0  0  0  0  0  0  0  0  0  0
    2.9449   12.8186    0.3661 H   0  0  0  0  0  0  0  0  0  0  0  0
    3.7424   13.0778   -1.2727 H   0  0  0  0  0  0  0  0  0  0  0  0
    3.2054   15.2499    0.1181 H   0  0  0  0  0  0  0  0  0  0  0  0
   -0.1902   14.5619   -1.9521 H   0  0  0  0  0  0  0  0  0  0  0  0
    1.8196   15.5271   -4.0796 H   0  0  0  0  0  0  0  0  0  0  0  0
    0.0898   15.0351   -4.3549 H   0  0  0  0  0  0  0  0  0  0  0  0
    0.3747   17.4927   -4.3444 H   0  0  0  0  0  0  0  0  0  0  0  0
   -0.6869   16.8984   -3.0078 H   0  0  0  0  0  0  0  0  0  0  0  0
    0.7770   18.5872   -2.1352 H   0  0  0  0  0  0  0  0  0  0  0  0
    2.8140   18.7020   -2.7770 H   0  0  0  0  0  0  0  0  0  0  0  0
    0.1791   16.9042    0.8061 H   0  0  0  0  0  0  0  0  0  0  0  0
   -0.5274   17.8447   -0.5515 H   0  0  0  0  0  0  0  0  0  0  0  0
   -0.6311   16.0514   -0.5515 H   0  0  0  0  0  0  0  0  0  0  0  0
    2.1395   17.3932    0.9182 H   0  0  0  0  0  0  0  0  0  0  0  0
    3.3875   17.1685   -0.3541 H   0  0  0  0  0  0  0  0  0  0  0  0
    2.3600   18.6419   -0.3541 H   0  0  0  0  0  0  0  0  0  0  0  0
    3.3094   12.9734   -3.2061 H   0  0  0  0  0  0  0  0  0  0  0  0
    2.1881   12.1510   -4.3433 H   0  0  0  0  0  0  0  0  0  0  0  0
    2.3126   13.9429   -4.3433 H   0  0  0  0  0  0  0  0  0  0  0  0
   -0.5880   13.1289   -3.8928 H   0  0  0  0  0  0  0  0  0  0  0  0
    0.3657   11.5406   -3.8361 H   0  0  0  0  0  0  0  0  0  0  0  0
   -1.6114   12.5841   -1.7899 H   0  0  0  0  0  0  0  0  0  0  0  0
   -1.7543   11.1352   -2.8607 H   0  0  0  0  0  0  0  0  0  0  0  0
    0.7684    9.0331   -1.2485 H   0  0  0  0  0  0  0  0  0  0  0  0
   -0.3812    9.2096   -2.6175 H   0  0  0  0  0  0  0  0  0  0  0  0
    1.1632   10.1271   -2.6175 H   0  0  0  0  0  0  0  0  0  0  0  0
  1 12  1  0  0  0  0
  1 33  1  0  0  0  0
  1 34  1  0  0  0  0
  1 35  1  0  0  0  0
  2  3  1  0  0  0  0
  2 48  1  0  0  0  0
  3  4  1  0  0  0  0
  3 49  1  0  0  0  0
  3 50  1  0  0  0  0
  4  5  1  0  0  0  0
  4 51  1  0  0  0  0
  4 52  1  0  0  0  0
  5  6  1  0  0  0  0
  5  7  1  0  0  0  0
  6 53  1  0  0  0  0
  6 54  1  0  0  0  0
  6 55  1  0  0  0  0
  7  8  1  0  0  0  0
  7 56  1  0  0  0  0
  8  9  1  0  0  0  0
  8 57  1  0  0  0  0
  8 58  1  0  0  0  0
  9 10  2  0  0  0  0
  9 59  1  0  0  0  0
 10 11  1  0  0  0  0
 11 13  1  0  0  0  0
 11 19  1  0  0  0  0
 11 60  1  0  0  0  0
  2 12  1  0  0  0  0
 12 22  1  0  0  0  0
 12 36  1  0  0  0  0
 13 14  1  0  0  0  0
 13 61  1  0  0  0  0
 13 62  1  0  0  0  0
 14 15  1  0  0  0  0
 14 63  1  0  0  0  0
 14 64  1  0  0  0  0
 15 16  1  0  0  0  0
 15 31  1  0  0  0  0
 15 65  1  0  0  0  0
 10 16  1  0  0  0  0
 16 17  1  0  0  0  0
 16 18  1  0  0  0  0
 17 67  1  0  0  0  0
 17 68  1  0  0  0  0
 17 69  1  0  0  0  0
 18 70  1  0  0  0  0
 18 71  1  0  0  0  0
 18 72  1  0  0  0  0
  7 19  1  0  0  0  0
 19 20  1  0  0  0  0
 19 21  1  0  0  0  0
 20 73  1  0  0  0  0
 20 74  1  0  0  0  0
 20 75  1  0  0  0  0
 21 23  1  0  0  0  0
 21 76  1  0  0  0  0
 21 77  1  0  0  0  0
 22 26  1  0  0  0  0
 22 37  1  0  0  0  0
 22 38  1  0  0  0  0
 23 24  1  0  0  0  0
 23 78  1  0  0  0  0
 23 79  1  0  0  0  0
  2 24  1  0  0  0  0
  5 24  1  0  0  0  0
 24 25  1  0  0  0  0
 25 80  1  0  0  0  0
 25 81  1  0  0  0  0
 25 82  1  0  0  0  0
 26 27  1  0  0  0  0
 26 39  1  0  0  0  0
 26 40  1  0  0  0  0
 27 32  1  0  0  0  0
 27 41  1  0  0  0  0
 27 28  1  0  0  0  0
 28 29  1  0  0  0  0
 28 30  1  0  0  0  0
 29 42  1  0  0  0  0
 29 43  1  0  0  0  0
 29 44  1  0  0  0  0
 30 45  1  0  0  0  0
 30 46  1  0  0  0  0
 30 47  1  0  0  0  0
 31 66  1  0  0  0  0
 28 32  1  0  0  0  0
M  END
$$$$
